$ MSC.Nastran input file created on November  28, 2021 at 20:54:42 by
$ Patran 2021.1  (Student Edition)
$ Direct Text Input for Nastran System Cell Section
$ Direct Text Input for File Management Section
$ Direct Text Input for Executive Control
$ Linear Static Analysis, Database
SOL 101
CEND
$ Direct Text Input for Global Case Control Data
TITLE = MSC.Nastran job created on 28-Nov-21 at 20:16:34
ECHO = NONE
   BCONTACT = 0
SUBCASE 1
   SUBTITLE=Default
   NLSTEP = 1
   BCONTACT = 1
   SPC = 2
   LOAD = 2
   DISPLACEMENT(SORT1,REAL)=ALL
   SPCFORCES(SORT1,REAL)=ALL
   STRESS(SORT1,REAL,VONMISES,BILIN)=ALL
$ Direct Text Input for this Subcase
BEGIN BULK
$ Direct Text Input for Bulk Data
MDLPRM   HDF5    0
PARAM   PRTMAXIM YES
BCPARA   0       NLGLUE  0
NLSTEP   1
BCTABL1  0       8001    8002    8003    8004    8005    8006    8007
         8008    8009    8010    8011    8012    8013    8014
BCONECT  8001    3001            5       1
BCONECT  8002    3002            1       1
BCONECT  8003    3003            2       1
BCONECT  8004    3004            3       1
BCONECT  8005    3005            4       1
BCONECT  8006    3006            5       2
BCONECT  8007    3007            2       2
BCONECT  8008    3008            3       2
BCONECT  8009    3009            4       2
BCONECT  8010    3010            5       3
BCONECT  8011    3011            3       3
BCONECT  8012    3012            4       3
BCONECT  8013    3013            5       4
BCONECT  8014    3014            4       4
BCONPRG  3001            ERROR   10.     ISEARCH 2
BCONPRG  3002            ERROR   10.     IGLUE   4       ISEARCH 2
BCONPRG  3003            ERROR   10.     IGLUE   4       ISEARCH 2
BCONPRG  3004            ERROR   10.     IGLUE   4       ISEARCH 2
BCONPRG  3005            ERROR   10.     IGLUE   4       ISEARCH 2
BCONPRG  3006            ERROR   10.     ISEARCH 2
BCONPRG  3007            ERROR   10.     IGLUE   4       ISEARCH 2
BCONPRG  3008            ERROR   10.     IGLUE   4       ISEARCH 2
BCONPRG  3009            ERROR   10.     IGLUE   4       ISEARCH 2
BCONPRG  3010            ERROR   10.     ISEARCH 2
BCONPRG  3011            ERROR   10.     IGLUE   4       ISEARCH 2
BCONPRG  3012            ERROR   10.     IGLUE   4       ISEARCH 2
BCONPRG  3013            ERROR   10.     ISEARCH 2
BCONPRG  3014            ERROR   10.     IGLUE   4       ISEARCH 2
BCTABL1  1       8001    8002    8003    8004    8005    8006    8007
         8008    8009    8010    8011    8012    8013    8014
$ Elements and Element Properties for region : Shell_anillos
$ Composite Property Reference Material: Laminado_anillos
$ Composite Material Description :
PCOMP    1                       .089    HILL
         1       .183    0.      YES     1       .183    0.      YES
         1       .183    0.      YES     1       .183    0.      YES
         1       .183    0.      YES     1       .183    0.      YES
         1       .183    0.      YES     1       .183    0.      YES
         1       .183    0.      YES     1       .183    0.      YES
$ Pset: "Shell_anillos" will be imported as: "pcomp.1"
CQUAD4   101     1       122     123     174     173
CQUAD4   102     1       123     124     175     174
CQUAD4   103     1       124     125     176     175
CQUAD4   104     1       125     126     177     176
CQUAD4   105     1       126     127     178     177
CQUAD4   106     1       127     128     179     178
CQUAD4   107     1       128     129     180     179
CQUAD4   108     1       129     130     181     180
CQUAD4   109     1       130     131     182     181
CQUAD4   110     1       131     132     183     182
CQUAD4   111     1       132     133     184     183
CQUAD4   112     1       133     134     185     184
CQUAD4   113     1       134     135     186     185
CQUAD4   114     1       135     136     187     186
CQUAD4   115     1       136     137     188     187
CQUAD4   116     1       137     138     189     188
CQUAD4   117     1       138     139     190     189
CQUAD4   118     1       139     140     191     190
CQUAD4   119     1       140     141     192     191
CQUAD4   120     1       141     142     193     192
$ ... 5 like lines cut
CTRIA3   126     1       147     199     198
CQUAD4   127     1       147     148     200     199
CQUAD4   128     1       148     149     201     200
CQUAD4   129     1       149     150     202     201
CQUAD4   130     1       150     151     203     202
CQUAD4   131     1       151     152     204     203
CQUAD4   132     1       152     153     205     204
CQUAD4   133     1       153     154     206     205
CQUAD4   134     1       154     155     207     206
CQUAD4   135     1       155     156     208     207
CQUAD4   136     1       156     157     209     208
CQUAD4   137     1       157     158     210     209
CQUAD4   138     1       158     159     211     210
CQUAD4   139     1       159     160     212     211
CQUAD4   140     1       160     161     213     212
CQUAD4   141     1       161     162     214     213
CQUAD4   142     1       162     163     215     214
CQUAD4   143     1       163     164     216     215
CQUAD4   144     1       164     165     217     216
CQUAD4   145     1       165     166     218     217
CQUAD4   146     1       166     167     219     218
$ ... 44 like lines cut
CTRIA3   191     1       264     344     343
CQUAD4   192     1       264     265     345     344
CQUAD4   193     1       265     266     346     345
CQUAD4   194     1       266     267     347     346
CQUAD4   195     1       267     268     348     347
CQUAD4   196     1       268     269     349     348
CQUAD4   197     1       269     270     350     349
CQUAD4   198     1       270     271     351     350
CQUAD4   199     1       271     272     352     351
CQUAD4   200     1       272     273     353     352
CQUAD4   201     1       273     274     354     353
CQUAD4   202     1       274     275     355     354
CQUAD4   203     1       275     276     356     355
CQUAD4   204     1       276     277     357     356
CQUAD4   205     1       277     278     358     357
CQUAD4   206     1       278     279     359     358
CQUAD4   207     1       279     280     360     359
CQUAD4   208     1       280     281     361     360
CQUAD4   209     1       281     282     362     361
CQUAD4   210     1       282     283     363     362
CQUAD4   211     1       283     284     364     363
$ ... 32 like lines cut
CTRIA3   244     1       410     412     411
CQUAD4   245     1       412     414     413     411
CQUAD4   246     1       414     416     415     413
CQUAD4   247     1       416     418     417     415
CQUAD4   248     1       418     420     419     417
CQUAD4   249     1       420     422     421     419
CQUAD4   250     1       422     424     423     421
CQUAD4   251     1       424     426     425     423
CQUAD4   252     1       426     428     427     425
CQUAD4   253     1       428     430     429     427
CQUAD4   254     1       430     432     431     429
CQUAD4   255     1       432     434     433     431
CQUAD4   256     1       434     436     435     433
CQUAD4   257     1       436     438     437     435
CQUAD4   258     1       438     439     440     437
CQUAD4   259     1       441     442     463     462
CQUAD4   260     1       442     443     464     463
CQUAD4   261     1       443     444     465     464
CQUAD4   262     1       444     445     466     465
CQUAD4   263     1       445     446     467     466
CQUAD4   264     1       446     447     468     467
$ ... 4 like lines cut
CTRIA3   269     1       451     473     472
CQUAD4   270     1       451     452     474     473
CQUAD4   271     1       452     453     475     474
CQUAD4   272     1       453     454     476     475
CQUAD4   273     1       454     455     477     476
CQUAD4   274     1       455     456     478     477
CQUAD4   275     1       456     457     479     478
CQUAD4   276     1       457     458     480     479
CQUAD4   277     1       458     459     481     480
CQUAD4   278     1       459     460     482     481
CQUAD4   279     1       460     461     483     482
CQUAD4   280     1       484     485     517     516
CQUAD4   281     1       485     486     518     517
CQUAD4   282     1       486     487     519     518
CQUAD4   283     1       487     488     520     519
CQUAD4   284     1       488     489     521     520
CQUAD4   285     1       489     490     522     521
CQUAD4   286     1       490     491     523     522
CQUAD4   287     1       491     492     524     523
CQUAD4   288     1       492     493     525     524
CQUAD4   289     1       493     494     526     525
$ ... 5 like lines cut
CTRIA3   295     1       499     532     531
CQUAD4   296     1       499     500     533     532
CQUAD4   297     1       500     501     534     533
CQUAD4   298     1       501     502     535     534
CQUAD4   299     1       502     503     536     535
CQUAD4   300     1       503     504     537     536
CQUAD4   301     1       504     505     538     537
CQUAD4   302     1       505     506     539     538
CQUAD4   303     1       506     507     540     539
CQUAD4   304     1       507     508     541     540
CQUAD4   305     1       508     509     542     541
CQUAD4   306     1       509     510     543     542
CQUAD4   307     1       510     511     544     543
CQUAD4   308     1       511     512     545     544
CQUAD4   309     1       512     513     546     545
CQUAD4   310     1       513     514     547     546
CQUAD4   311     1       514     515     548     547
CQUAD4   312     1       549     552     551     550
CQUAD4   313     1       552     553     554     551
CQUAD4   314     1       553     555     557     554
CQUAD4   315     1       555     556     559     557
$ ... 29 like lines cut
CTRIA3   345     1       597     643     642
CQUAD4   346     1       597     598     644     643
CQUAD4   347     1       598     599     645     644
CQUAD4   348     1       599     600     646     645
CQUAD4   349     1       600     601     647     646
CQUAD4   350     1       601     602     648     647
CQUAD4   351     1       602     603     649     648
CQUAD4   352     1       603     604     650     649
CQUAD4   353     1       604     605     651     650
CQUAD4   354     1       605     606     652     651
CQUAD4   355     1       606     607     653     652
CQUAD4   356     1       607     608     654     653
CQUAD4   357     1       608     609     655     654
CQUAD4   358     1       609     610     656     655
CQUAD4   359     1       610     611     657     656
CQUAD4   360     1       611     612     658     657
CQUAD4   361     1       612     613     659     658
CQUAD4   362     1       613     614     660     659
CQUAD4   363     1       614     615     661     660
CQUAD4   364     1       615     616     662     661
CQUAD4   365     1       616     617     663     662
$ ... 113 like lines cut
CTRIA3   479     1       877     878     914
CQUAD4   480     1       878     879     915     914
CQUAD4   481     1       879     880     916     915
CQUAD4   482     1       880     881     917     916
CQUAD4   483     1       881     882     918     917
CQUAD4   484     1       882     883     919     918
CQUAD4   485     1       883     884     920     919
CQUAD4   486     1       884     885     921     920
CQUAD4   487     1       885     886     922     921
CQUAD4   488     1       886     887     923     922
CQUAD4   489     1       887     888     924     923
CQUAD4   490     1       888     889     925     924
CQUAD4   491     1       889     890     926     925
CQUAD4   492     1       890     891     927     926
CQUAD4   493     1       891     892     928     927
CQUAD4   494     1       892     893     929     928
CQUAD4   495     1       893     894     930     929
CQUAD4   496     1       894     895     931     930
CQUAD4   497     1       895     896     932     931
CQUAD4   498     1       933     934     989     988
CQUAD4   499     1       934     935     990     989
$ ... 25 like lines cut
CTRIA3   525     1       960     1016    1015
CQUAD4   526     1       960     961     1017    1016
CQUAD4   527     1       961     962     1018    1017
CQUAD4   528     1       962     963     1019    1018
CQUAD4   529     1       963     964     1020    1019
CQUAD4   530     1       964     965     1021    1020
CQUAD4   531     1       965     966     1022    1021
CQUAD4   532     1       966     967     1023    1022
CQUAD4   533     1       967     968     1024    1023
CQUAD4   534     1       968     969     1025    1024
CQUAD4   535     1       969     970     1026    1025
CQUAD4   536     1       970     971     1027    1026
CQUAD4   537     1       971     972     1028    1027
CQUAD4   538     1       972     973     1029    1028
CQUAD4   539     1       973     974     1030    1029
CQUAD4   540     1       974     975     1031    1030
CQUAD4   541     1       975     976     1032    1031
CQUAD4   542     1       976     977     1033    1032
CQUAD4   543     1       977     978     1034    1033
CQUAD4   544     1       978     979     1035    1034
CQUAD4   545     1       979     980     1036    1035
$ ... 26 like lines cut
$ Elements and Element Properties for region : Shell_helicoidales
$ Composite Property Reference Material: Laminado_rigidizadores_helicoid
$ Composite Material Description :
PCOMP    2                       .089    HILL
         2       .183    90.     YES     2       .183    90.     YES
         2       .183    90.     YES     2       .183    90.     YES
         2       .183    90.     YES     2       .183    90.     YES
         2       .183    90.     YES     2       .183    90.     YES
         2       .183    90.     YES     2       .183    90.     YES
$ Pset: "Shell_helicoidales" will be imported as: "pcomp.2"
CQUAD4   572     2       1084    1085    1087    1086
CQUAD4   573     2       1086    1087    1089    1088
CQUAD4   574     2       1088    1089    1091    1090
CQUAD4   575     2       1090    1091    1093    1092
CQUAD4   576     2       1092    1093    1095    1094
CQUAD4   577     2       1094    1095    1097    1096
CQUAD4   578     2       1096    1097    1099    1098
CQUAD4   579     2       1098    1099    1101    1100
CQUAD4   580     2       1100    1101    1103    1102
CQUAD4   581     2       1102    1103    1105    1104
CQUAD4   582     2       1104    1105    1107    1106
CQUAD4   583     2       1106    1107    1109    1108
CQUAD4   584     2       1108    1109    1111    1110
CQUAD4   585     2       1110    1111    1113    1112
CQUAD4   586     2       1112    1113    1115    1114
CQUAD4   587     2       1114    1115    1117    1116
CQUAD4   588     2       1116    1117    1119    1118
CQUAD4   589     2       1118    1119    1121    1120
CQUAD4   590     2       1120    1121    1123    1122
CQUAD4   591     2       1122    1123    1125    1124
$ ... 1516 like lines cut
$ Elements and Element Properties for region : Shell_verticales
$ Composite Property Reference Material: Laminado_rigidizadores_vertical
$ Composite Material Description :
PCOMP    3                       .089    HILL
         2       .183    90.     YES     2       .183    90.     YES
         2       .183    90.     YES     2       .183    90.     YES
         2       .183    90.     YES     2       .183    90.     YES
         2       .183    90.     YES     2       .183    90.     YES
         2       .183    90.     YES     2       .183    90.     YES
$ Pset: "Shell_verticales" will be imported as: "pcomp.3"
CQUAD4   2108    3       4204    4205    4207    4206
CQUAD4   2109    3       4206    4207    4209    4208
CQUAD4   2110    3       4208    4209    4211    4210
CQUAD4   2111    3       4210    4211    4213    4212
CQUAD4   2112    3       4212    4213    4215    4214
CQUAD4   2113    3       4214    4215    4217    4216
CQUAD4   2114    3       4216    4217    4219    4218
CQUAD4   2115    3       4218    4219    4221    4220
CQUAD4   2116    3       4220    4221    4223    4222
CQUAD4   2117    3       4222    4223    4225    4224
CQUAD4   2118    3       4224    4225    4227    4226
CQUAD4   2119    3       4226    4227    4229    4228
CQUAD4   2120    3       4228    4229    4231    4230
CQUAD4   2121    3       4230    4231    4233    4232
CQUAD4   2122    3       4232    4233    4235    4234
CQUAD4   2123    3       4234    4235    4237    4236
CQUAD4   2124    3       4236    4237    4239    4238
CQUAD4   2125    3       4238    4239    4241    4240
CQUAD4   2126    3       4240    4241    4243    4242
CQUAD4   2127    3       4242    4243    4245    4244
$ ... 676 like lines cut
$ Referenced Material Records
$ Material Record : Anillos
$ Description of Material : Date: 24-Nov-21           Time: 11:45:07
MAT8*    1               158.489         8.9490004       .315611
*        4.6490002       4.6490002       4.6490002       1.58
                                 2.233   1.418   .051    .255    .089
$ Material Record : Rigidizadores
$ Description of Material : Date: 24-Nov-21           Time: 11:45:07
MAT8*    2               140.93201       9.712           .356
*        4.6499991       4.6499991       4.6499991       1.58
                                 2.233   1.418   .051    .255    .089
$ Multipoint Constraints of the Entire Model
$ ID conflict : the PATRAN MPC ID was 1
RBE2     2804    574     3       441     442     443     444     445
         446     447     448     449     450     451     452     453
         454     455     456     457     458     459     460     461
         484     485     486     487     488     489     490     491
         492     493     494     495     496     497     498     499
         500     501     502     503     504     505     506     507
         508     509     510     511     512     513     514     515
         550     551     554     557     559     561     563     565
         566     568     570     572
$ Nodes of the Entire Model
GRID     1               -150.   -150.   0.
GRID     2               -120.   -150.   0.
GRID     3               -90.    -150.   0.
GRID*    4                              -59.999996185303 -150.
*        0.
GRID*    5                              -29.999998092651 -150.
*        0.
GRID     6               0.      -150.   0.
GRID*    7                              30.0000076293945 -150.
*        0.
GRID*    8                              60.0000152587891 -150.
*        0.
GRID*    9                              90.0000228881836 -150.
*        0.
GRID*    10                             120.000030517578 -150.
*        0.
GRID     11              150.    -150.   0.
GRID     12              -150.   -120.   0.
GRID     13              -120.   -120.   0.
GRID     14              -90.    -120.   0.
GRID*    15                             -59.999996185303 -120.
*        0.
GRID*    16                             -29.999998092651 -120.
*        0.
GRID     17              0.      -120.   0.
GRID*    18                             30.0000076293945 -120.
*        0.
GRID*    19                             60.0000152587891 -120.
*        0.
GRID*    20                             90.0000228881836 -120.
*        0.
GRID*    21                             120.000030517578 -120.
*        0.
GRID     22              150.    -120.   0.
GRID     23              -150.   -90.    0.
GRID     24              -120.   -90.    0.
GRID     25              -90.    -90.    0.
GRID*    26                             -59.999996185303 -90.
*        0.
GRID*    27                             -29.999998092651 -90.
*        0.
GRID     28              0.      -90.    0.
GRID*    29                             30.0000076293945 -90.
*        0.
GRID*    30                             60.0000152587891 -90.
*        0.
GRID*    31                             90.0000228881836 -90.
*        0.
GRID*    32                             120.000030517578 -90.
*        0.
GRID     33              150.    -90.    0.
GRID*    34                              -150.          -59.999996185303
*        0.
GRID*    35                              -120.          -59.999996185303
*        0.
GRID*    36                              -90.           -59.999996185303
*        0.
GRID*    37                             -59.999996185303-59.999996185303
*        0.
GRID*    38                             -29.999998092651-59.999996185303
*        0.
GRID*    39                              0.             -59.999996185303
*        0.
GRID*    40                             30.0000076293945-59.999996185303
*        0.
GRID*    41                             60.0000152587891-59.999996185303
*        0.
GRID*    42                             90.0000228881836-59.999996185303
*        0.
GRID*    43                             120.000030517578-59.999996185303
*        0.
GRID*    44                              150.           -59.999996185303
*        0.
GRID*    45                              -150.          -29.999998092651
*        0.
GRID*    46                              -120.          -29.999998092651
*        0.
GRID*    47                              -90.           -29.999998092651
*        0.
GRID*    48                             -59.999996185303-29.999998092651
*        0.
GRID*    49                             -29.999998092651-29.999998092651
*        0.
GRID*    50                              0.             -29.999998092651
*        0.
GRID*    51                             30.0000076293945-29.999998092651
*        0.
GRID*    52                             60.0000152587891-29.999998092651
*        0.
GRID*    53                             90.0000228881836-29.999998092651
*        0.
GRID*    54                             120.000030517578-29.999998092651
*        0.
GRID*    55                              150.           -29.999998092651
*        0.
GRID     56              -150.   0.      0.
GRID     57              -120.   0.      0.
GRID     58              -90.    0.      0.
GRID*    59                             -59.999996185303 0.
*        0.
GRID*    60                             -29.999998092651 0.
*        0.
GRID     61              0.      0.      0.
GRID*    62                             30.0000076293945 0.
*        0.
GRID*    63                             60.0000152587891 0.
*        0.
GRID*    64                             90.0000228881836 0.
*        0.
GRID*    65                             120.000030517578 0.
*        0.
GRID     66              150.    0.      0.
GRID*    67                              -150.          30.0000076293945
*        0.
GRID*    68                              -120.          30.0000076293945
*        0.
GRID*    69                              -90.           30.0000076293945
*        0.
GRID*    70                             -59.99999618530330.0000076293945
*        0.
GRID*    71                             -29.99999809265130.0000076293945
*        0.
GRID*    72                              0.             30.0000076293945
*        0.
GRID*    73                             30.000007629394530.0000076293945
*        0.
GRID*    74                             60.000015258789130.0000076293945
*        0.
GRID*    75                             90.000022888183630.0000076293945
*        0.
GRID*    76                             120.00003051757830.0000076293945
*        0.
GRID*    77                              150.           30.0000076293945
*        0.
GRID*    78                              -150.          60.0000152587891
*        0.
GRID*    79                              -120.          60.0000152587891
*        0.
GRID*    80                              -90.           60.0000152587891
*        0.
GRID*    81                             -59.99999618530360.0000152587891
*        0.
GRID*    82                             -29.99999809265160.0000152587891
*        0.
GRID*    83                              0.             60.0000152587891
*        0.
GRID*    84                             30.000007629394560.0000152587891
*        0.
GRID*    85                             60.000015258789160.0000152587891
*        0.
GRID*    86                             90.000022888183660.0000152587891
*        0.
$ ... 48 like lines cut
GRID     111             -150.   150.    0.
GRID     112             -120.   150.    0.
GRID     113             -90.    150.    0.
GRID*    114                            -59.999996185303 150.
*        0.
GRID*    115                            -29.999998092651 150.
*        0.
GRID     116             0.      150.    0.
GRID*    117                            30.0000076293945 150.
*        0.
GRID*    118                            60.0000152587891 150.
*        0.
GRID*    119                            90.0000228881836 150.
*        0.
GRID*    120                            120.000030517578 150.
*        0.
GRID     121             150.    150.    0.
GRID*    122                            -123.79306793213-5.27635129401-5
*        4.50634765625
GRID*    123                            -123.690612792975.03539705276489
*        4.50634765625
GRID*    124                            -123.3833618164110.0631113052368
*        4.50634765625
GRID*    125                            -122.8719482421915.0732383728027
*        4.50634765625
GRID*    126                            -122.15705871582 20.059139251709
*        4.50634765625
GRID*    127                            -121.23993682861 25.011833190918
*        4.50634765625
GRID*    128                            -120.1222763061529.9224052429199
*        4.50634765625
GRID*    129                            -118.8055496215834.7843551635742
*        4.50634765625
GRID*    130                            -117.2923202514639.5881385803223
*        4.50634765625
GRID*    131                            -115.5849380493244.3264007568359
*        4.50634765625
GRID*    132                            -113.6859970092848.9918365478516
*        4.50634765625
GRID*    133                            -111.5992279052753.5753326416016
*        4.50634765625
GRID*    134                             -109.327430725158.0707817077637
*        4.50634765625
GRID*    135                            -106.8746261596762.4701194763184
*        4.50634765625
GRID*    136                            -104.2452926635766.7654037475586
*        4.50634765625
GRID*    137                            -101.4428939819370.9509582519531
*        4.50634765625
GRID*    138                             -98.4729080200275.0185623168945
*        4.50634765625
GRID*    139                             -95.3399276733478.9619903564453
*        4.50634765625
GRID*    140                            -92.04872131347782.7751770019531
*        4.50634765625
GRID*    141                            -88.60577392578186.4506378173828
*        4.50634765625
$ ... 862 like lines cut
GRID     573             0.      0.      400.
GRID     574             0.      0.      400.
GRID*    575                            -109.06092834473-4.67379904876-5
*       59.5063171386719
GRID*    576                            -108.94437408447 5.0406322479248
*       59.5063171386719
GRID*    577                            -108.59492492676 10.070969581604
*       59.5063171386719
GRID*    578                            -108.0133361816415.0797700881958
*       59.5063171386719
GRID*    579                            -107.2009658813520.0556964874268
*       59.5063171386719
GRID*    580                            -106.1593399047924.9894161224365
*       59.5063171386719
GRID*    581                            -104.8907775878929.8697166442871
*       59.5063171386719
GRID*    582                             -103.398162841834.6856384277344
*       59.5063171386719
GRID*    583                            -101.6844863891639.4276275634766
*       59.5063171386719
GRID*    584                             -99.7532882690444.0857467651367
*       59.5063171386719
GRID*    585                            -97.60897827148448.6493339538574
*       59.5063171386719
GRID*    586                            -95.25623321533253.1085624694824
*       59.5063171386719
GRID*    587                            -92.69956207275457.4548416137695
*       59.5063171386719
GRID*    588                            -89.94473266601661.6782875061035
*       59.5063171386719
GRID*    589                            -86.99800872802765.7693862915039
*       59.5063171386719
GRID*    590                            -83.86510467529369.7202224731445
*       59.5063171386719
GRID*    591                            -80.55270385742273.5222778320313
*       59.5063171386719
GRID*    592                            -77.06847381591877.1667938232422
*       59.5063171386719
GRID*    593                            -73.41956329345780.6463317871094
*       59.5063171386719
GRID*    594                            -69.61335754394583.9538116455078
*       59.5063171386719
$ ... 10050 like lines cut
$ Loads for Load Case : Default
SPCADD   2       1
LOAD     2       1.      1.      1
$ Displacement Constraints of Load Set : Base_empotrada
SPC1     1       123456  1       THRU    121
$ Deform Body Contact LBC set: anillos_deformable
BCBODY1  1       5001    3D      DEFORM  4
BCBDPRP  5001            FRIC    .1
BSURF    4       323     324     325     326     327     328     329
         330     331     332     333     334     335     336     337
         338     339     340     341     342     343     344     345
         346     347     348     349     350     351     352     353
         354     355     356     357     358     359     360     361
         362     363     364     365     366     367     368     369
         370     371     372     373     374     375     376     377
         378     379     380     381     382     383     384     385
         386     387     388     389     390     391     392     393
         394     395     396     397     398     399     400     401
         402     403     404     405     406     407     408     409
         410     411     412     413     414     415     416     417
         418     419     420     421     422     423     424     425
         426     427     428     429     430     431     432     433
         434     435     436     437     438     439     440     441
         442     443     444     445     446     447     448     449
         450     451     452     453     454     455     456     457
         458     459     460     461     462     463     464     465
         466     467     468     469     470     471     472     473
         474     475     476     477     478     479     480     481
         482     483     484     485     486     487     488     489
$ ... 11 like lines cut
$ Deform Body Contact LBC set: helicoidalesD_deformable
BCBODY1  2       5002    3D      DEFORM  5
BCBDPRP  5002            FRIC    .1
BSURF    5       572     573     574     575     576     577     578
         579     580     581     582     583     584     585     586
         587     588     589     590     591     592     593     594
         595     596     597     598     599     600     601     602
         603     604     605     606     607     608     609     610
         611     612     613     614     615     616     617     618
         619     620     621     622     623     624     625     626
         627     628     629     630     631     632     633     634
         635     636     637     638     639     640     641     642
         643     644     645     646     647     648     649     650
         651     652     653     654     655     656     657     658
         659     660     661     662     663     664     665     666
         667     668     669     670     671     672     673     674
         675     676     677     678     679     680     681     682
         683     684     685     686     687     688     689     690
         691     692     693     694     695     696     697     698
         699     700     701     702     703     704     705     706
         707     708     709     710     711     712     713     714
         715     716     717     718     719     720     721     722
         723     724     725     726     727     728     729     730
         731     732     733     734     735     736     737     738
$ ... 76 like lines cut
$ Deform Body Contact LBC set: helicoidalesI_deformable
BCBODY1  3       5003    3D      DEFORM  6
BCBDPRP  5003            FRIC    .1
BSURF    6       1340    1341    1342    1343    1344    1345    1346
         1347    1348    1349    1350    1351    1352    1353    1354
         1355    1356    1357    1358    1359    1360    1361    1362
         1363    1364    1365    1366    1367    1368    1369    1370
         1371    1372    1373    1374    1375    1376    1377    1378
         1379    1380    1381    1382    1383    1384    1385    1386
         1387    1388    1389    1390    1391    1392    1393    1394
         1395    1396    1397    1398    1399    1400    1401    1402
         1403    1404    1405    1406    1407    1408    1409    1410
         1411    1412    1413    1414    1415    1416    1417    1418
         1419    1420    1421    1422    1423    1424    1425    1426
         1427    1428    1429    1430    1431    1432    1433    1434
         1435    1436    1437    1438    1439    1440    1441    1442
         1443    1444    1445    1446    1447    1448    1449    1450
         1451    1452    1453    1454    1455    1456    1457    1458
         1459    1460    1461    1462    1463    1464    1465    1466
         1467    1468    1469    1470    1471    1472    1473    1474
         1475    1476    1477    1478    1479    1480    1481    1482
         1483    1484    1485    1486    1487    1488    1489    1490
         1491    1492    1493    1494    1495    1496    1497    1498
         1499    1500    1501    1502    1503    1504    1505    1506
$ ... 76 like lines cut
$ Deform Body Contact LBC set: verticales_deformable
BCBODY1  4       5004    3D      DEFORM  7
BCBDPRP  5004            FRIC    .1
BSURF    7       2108    2109    2110    2111    2112    2113    2114
         2115    2116    2117    2118    2119    2120    2121    2122
         2123    2124    2125    2126    2127    2128    2129    2130
         2131    2132    2133    2134    2135    2136    2137    2138
         2139    2140    2141    2142    2143    2144    2145    2146
         2147    2148    2149    2150    2151    2152    2153    2154
         2155    2156    2157    2158    2159    2160    2161    2162
         2163    2164    2165    2166    2167    2168    2169    2170
         2171    2172    2173    2174    2175    2176    2177    2178
         2179    2180    2181    2182    2183    2184    2185    2186
         2187    2188    2189    2190    2191    2192    2193    2194
         2195    2196    2197    2198    2199    2200    2201    2202
         2203    2204    2205    2206    2207    2208    2209    2210
         2211    2212    2213    2214    2215    2216    2217    2218
         2219    2220    2221    2222    2223    2224    2225    2226
         2227    2228    2229    2230    2231    2232    2233    2234
         2235    2236    2237    2238    2239    2240    2241    2242
         2243    2244    2245    2246    2247    2248    2249    2250
         2251    2252    2253    2254    2255    2256    2257    2258
         2259    2260    2261    2262    2263    2264    2265    2266
         2267    2268    2269    2270    2271    2272    2273    2274
$ ... 67 like lines cut
$ Rigid Body Contact LBC set: Base_rigid
BCBODY1  5       5005    3D      RIGID   2       8005
BCBDPRP  5005            FRIC    .1
BCRIGID  8005            0
BCPATCH  2
         1       1       2       13      12
         2       2       3       14      13
         3       3       4       15      14
         4       4       5       16      15
         5       5       6       17      16
         6       6       7       18      17
         7       7       8       19      18
         8       8       9       20      19
         9       9       10      21      20
         10      10      11      22      21
         11      12      13      24      23
         12      13      14      25      24
         13      14      15      26      25
         14      15      16      27      26
         15      16      17      28      27
         16      17      18      29      28
         17      18      19      30      29
         18      19      20      31      30
         19      20      21      32      31
         20      21      22      33      32
$ ... 80 like lines cut
$ Nodal Forces of Load Set : Fuerza
FORCE    1       574     0       15.     0.      0.      -1.
$ Referenced Coordinate Frames
ENDDATA 8dea5342
