$ MSC.Nastran input file created on November  30, 2021 at 23:10:05 by
$ Patran 2021.1  (Student Edition)
$ Direct Text Input for Nastran System Cell Section
$ Direct Text Input for File Management Section
$ Direct Text Input for Executive Control
$ Linear Static Analysis, Database
SOL 101
CEND
$ Direct Text Input for Global Case Control Data
TITLE = MSC.Nastran job created on 29-Nov-21 at 23:30:36
ECHO = NONE
   BCONTACT = 0
SUBCASE 1
   SUBTITLE=Default
   NLSTEP = 1
   BCONTACT = 1
   SPC = 2
   LOAD = 2
   DISPLACEMENT(SORT1,REAL)=ALL
   SPCFORCES(SORT1,REAL)=ALL
   STRESS(SORT1,REAL,VONMISES,BILIN)=ALL
$ Direct Text Input for this Subcase
BEGIN BULK
$ Direct Text Input for Bulk Data
MDLPRM   HDF5    0
PARAM   PRTMAXIM YES
BCPARA   0       NLGLUE  0
NLSTEP   1
BCTABL1  0       8001    8002    8003    8004    8005    8006    8007
         8008    8009    8010    8011    8012    8013    8014    8015
         8016    8017    8018    8019    8020
BCONECT  8001    3001            6       1
BCONECT  8002    3002            1       1
BCONECT  8003    3003            2       1
BCONECT  8004    3004            3       1
BCONECT  8005    3005            4       1
BCONECT  8006    3006            5       1
BCONECT  8007    3007            6       2
BCONECT  8008    3008            2       2
BCONECT  8009    3009            3       2
BCONECT  8010    3010            4       2
BCONECT  8011    3011            5       2
BCONECT  8012    3012            6       3
BCONECT  8013    3013            3       3
BCONECT  8014    3014            4       3
BCONECT  8015    3015            5       3
BCONECT  8016    3016            6       4
BCONECT  8017    3017            4       4
BCONECT  8018    3018            5       4
BCONECT  8019    3019            6       5
BCONECT  8020    3020            5       5
BCONPRG  3001            AUGDIST 10.     COPTM   1061    COPTS   10
         ERROR   5.      PENALT  1.
BCONPRG  3002            ERROR   5.      IGLUE   4       ISEARCH 2
         PENALT  1.
BCONPRG  3003            ERROR   5.      IGLUE   4       ISEARCH 2
         PENALT  1.
BCONPRG  3004            ERROR   5.      IGLUE   4       ISEARCH 2
         PENALT  1.
BCONPRG  3005            ERROR   5.      IGLUE   4       ISEARCH 2
         PENALT  1.
BCONPRG  3006            ERROR   5.      IGLUE   2       ISEARCH 2
         PENALT  1.
BCONPRG  3007            AUGDIST 10.     COPTM   1061    COPTS   10
         ERROR   5.      PENALT  1.
BCONPRG  3008            ERROR   5.      IGLUE   4       ISEARCH 2
         PENALT  1.
BCONPRG  3009            ERROR   5.      IGLUE   4       ISEARCH 2
         PENALT  1.
BCONPRG  3010            ERROR   5.      IGLUE   4       ISEARCH 2
         PENALT  1.
BCONPRG  3011            ERROR   5.      IGLUE   4       ISEARCH 2
         PENALT  1.
BCONPRG  3012            AUGDIST 10.     COPTM   1061    COPTS   10
         ERROR   5.      PENALT  1.
BCONPRG  3013            ERROR   5.      IGLUE   4       ISEARCH 2
         PENALT  1.
BCONPRG  3014            ERROR   5.      IGLUE   4       ISEARCH 2
         PENALT  1.
BCONPRG  3015            ERROR   5.      IGLUE   4       ISEARCH 2
         PENALT  1.
BCONPRG  3016            AUGDIST 10.     COPTM   1061    COPTS   10
         ERROR   5.      PENALT  1.
BCONPRG  3017            ERROR   5.      IGLUE   4       ISEARCH 2
         PENALT  1.
BCONPRG  3018            ERROR   5.      IGLUE   4       ISEARCH 2
         PENALT  1.
BCONPRG  3019            AUGDIST 10.     COPTM   1061    COPTS   10
         ERROR   5.      PENALT  1.
BCONPRG  3020            ERROR   5.      IGLUE   4       ISEARCH 2
         PENALT  1.
BCTABL1  1       8001    8002    8003    8004    8005    8006    8007
         8008    8009    8010    8011    8012    8013    8014    8015
         8016    8017    8018    8019    8020
$ Elements and Element Properties for region : Shell_anillos_exteriores
$ Composite Property Reference Material: Laminado_anillos_exteriores
$ Composite Material Description :
PCOMP    1                       .089    HILL
         1       .183    0.      YES     1       .183    0.      YES
         1       .183    0.      YES     1       .183    0.      YES
         1       .183    0.      YES     1       .183    0.      YES
         1       .183    0.      YES     1       .183    0.      YES
         1       .183    0.      YES     1       .183    0.      YES
         1       .183    0.      YES
$ Pset: "Shell_anillos_exteriores" will be imported as: "pcomp.1"
CQUAD4   1       1       1       2       17      16
CQUAD4   2       1       2       3       18      17
CQUAD4   3       1       3       4       19      18
CQUAD4   4       1       4       5       20      19
CQUAD4   5       1       5       6       21      20
CQUAD4   6       1       6       7       22      21
CQUAD4   7       1       7       8       23      22
CQUAD4   8       1       8       9       24      23
CQUAD4   9       1       9       10      25      24
CQUAD4   10      1       10      11      26      25
CQUAD4   11      1       11      12      27      26
CQUAD4   12      1       12      13      28      27
CQUAD4   13      1       13      14      29      28
CQUAD4   14      1       14      15      30      29
CQUAD4   15      1       31      32      72      1
CQUAD4   16      1       32      33      73      72
CQUAD4   17      1       33      34      74      73
CQUAD4   18      1       34      35      75      74
CQUAD4   19      1       35      36      76      75
CQUAD4   20      1       36      37      77      76
$ ... 13 like lines cut
CTRIA3   34      1       50      91      90
CQUAD4   35      1       50      51      92      91
CQUAD4   36      1       51      52      93      92
CQUAD4   37      1       52      53      94      93
CQUAD4   38      1       53      54      95      94
CQUAD4   39      1       54      55      96      95
CQUAD4   40      1       55      56      97      96
CQUAD4   41      1       56      57      98      97
CQUAD4   42      1       57      58      99      98
CQUAD4   43      1       58      59      100     99
CQUAD4   44      1       59      60      101     100
CQUAD4   45      1       60      61      102     101
CQUAD4   46      1       61      62      103     102
CQUAD4   47      1       62      63      104     103
CQUAD4   48      1       63      64      105     104
CQUAD4   49      1       64      65      106     105
CQUAD4   50      1       65      66      107     106
CQUAD4   51      1       66      67      108     107
CQUAD4   52      1       67      68      109     108
CQUAD4   53      1       68      69      110     109
CQUAD4   54      1       69      70      111     110
$ ... 74 like lines cut
CTRIA3   129     1       214     1899    312
CQUAD4   130     1       214     215     314     1899
CQUAD4   131     1       215     216     315     314
CQUAD4   132     1       216     217     316     315
CQUAD4   133     1       217     218     317     316
CQUAD4   134     1       218     219     318     317
CQUAD4   135     1       219     220     319     318
CQUAD4   136     1       220     221     320     319
CQUAD4   137     1       221     222     321     320
CQUAD4   138     1       222     223     322     321
CQUAD4   139     1       223     224     323     322
CQUAD4   140     1       224     225     324     323
CQUAD4   141     1       225     226     325     324
CQUAD4   142     1       226     227     326     325
CQUAD4   143     1       227     228     327     326
CQUAD4   144     1       228     229     328     327
CQUAD4   145     1       229     230     329     328
CQUAD4   146     1       230     231     330     329
CQUAD4   147     1       231     232     331     330
CQUAD4   148     1       232     233     332     331
CQUAD4   149     1       233     234     333     332
$ ... 60 like lines cut
CTRIA3   210     1       394     459     458
CQUAD4   211     1       394     395     460     459
CQUAD4   212     1       395     396     461     460
CQUAD4   213     1       396     397     462     461
CQUAD4   214     1       397     398     463     462
CQUAD4   215     1       398     399     464     463
CQUAD4   216     1       399     400     465     464
CQUAD4   217     1       400     401     466     465
CQUAD4   218     1       401     402     467     466
CQUAD4   219     1       402     403     468     467
CQUAD4   220     1       403     404     469     468
CQUAD4   221     1       404     405     470     469
CQUAD4   222     1       405     406     471     470
CQUAD4   223     1       406     407     472     471
CQUAD4   224     1       407     408     473     472
CQUAD4   225     1       408     409     474     473
CQUAD4   226     1       409     410     475     474
CQUAD4   227     1       410     411     476     475
CQUAD4   228     1       411     412     4592    476
CQUAD4   229     1       412     413     478     4592
CQUAD4   230     1       413     414     479     478
$ ... 29 like lines cut
CTRIA3   260     1       509     510     545
CQUAD4   261     1       510     511     546     545
CQUAD4   262     1       511     512     547     546
CQUAD4   263     1       512     513     548     547
CQUAD4   264     1       513     514     549     548
CQUAD4   265     1       514     515     550     549
CQUAD4   266     1       515     3034    551     550
CQUAD4   267     1       3034    517     552     551
CQUAD4   268     1       517     518     553     552
CQUAD4   269     1       518     519     554     553
CQUAD4   270     1       519     520     555     554
CQUAD4   271     1       520     521     556     555
CQUAD4   272     1       521     522     557     556
CQUAD4   273     1       522     523     558     557
CQUAD4   274     1       523     524     559     558
CQUAD4   275     1       524     525     560     559
CQUAD4   276     1       525     526     561     560
CQUAD4   277     1       526     491     426     561
$ Elements and Element Properties for region : Shell_helicoidales
$ Composite Property Reference Material: Laminado_rigidizadores_helicoid
$ Composite Material Description :
PCOMP    2                       .089    HILL
         2       .183    90.     YES     2       .183    90.     YES
         2       .183    90.     YES     2       .183    90.     YES
         2       .183    90.     YES     2       .183    90.     YES
         2       .183    90.     YES     2       .183    90.     YES
$ Pset: "Shell_helicoidales" will be imported as: "pcomp.2"
CQUAD4   697     2       56      1416    1418    5756
CQUAD4   698     2       5756    1418    1420    5754
CQUAD4   699     2       5754    1420    1422    5752
CQUAD4   700     2       5752    1422    1424    5750
CQUAD4   701     2       5750    1424    1426    5748
CQUAD4   702     2       5748    1426    1428    5746
CQUAD4   703     2       5746    1428    1430    5744
CQUAD4   704     2       5744    1430    1432    5742
CQUAD4   705     2       5742    1432    3864    1433
CQUAD4   706     2       1433    3864    3866    1435
CQUAD4   707     2       1435    3866    3868    1437
CQUAD4   708     2       1437    3868    1440    1439
CQUAD4   709     2       1439    1440    1442    1441
CQUAD4   710     2       1441    1442    1444    1443
CQUAD4   711     2       1443    1444    1446    1445
CQUAD4   712     2       1445    1446    1448    1447
CQUAD4   713     2       1447    1448    1450    1449
CQUAD4   714     2       1449    1450    1452    1451
CQUAD4   715     2       1451    1452    1454    1453
CQUAD4   716     2       1453    1454    1456    1455
$ ... 1260 like lines cut
$ Elements and Element Properties for region : Shell_verticales
$ Composite Property Reference Material: Laminado_rigidizadores_vertical
$ Composite Material Description :
PCOMP    3                       .089    HILL
         2       .183    90.     YES     2       .183    90.     YES
         2       .183    90.     YES     2       .183    90.     YES
         2       .183    90.     YES     2       .183    90.     YES
         2       .183    90.     YES     2       .183    90.     YES
         2       .183    90.     YES     2       .183    90.     YES
         2       .183    90.     YES     2       .183    90.     YES
$ Pset: "Shell_verticales" will be imported as: "pcomp.3"
CQUAD4   1977    3       4007    4008    4010    4009
CQUAD4   1978    3       4009    4010    4012    4011
CQUAD4   1979    3       4011    4012    4014    4013
CQUAD4   1980    3       4013    4014    4016    4015
CQUAD4   1981    3       4015    4016    4018    4017
CQUAD4   1982    3       4017    4018    4020    4019
CQUAD4   1983    3       4019    4020    4022    4021
CQUAD4   1984    3       4021    4022    4024    4023
CQUAD4   1985    3       4023    4024    4026    4025
CQUAD4   1986    3       4025    4026    4028    4027
CQUAD4   1987    3       4027    4028    4030    4029
CQUAD4   1988    3       4029    4030    4032    4031
CQUAD4   1989    3       4031    4032    4034    4033
CQUAD4   1990    3       4033    4034    4036    4035
CQUAD4   1991    3       4035    4036    4038    4037
CQUAD4   1992    3       4037    4038    4040    4039
CQUAD4   1993    3       4039    4040    4042    4041
CQUAD4   1994    3       4041    4042    4044    4043
CQUAD4   1995    3       4043    4044    4046    4045
CQUAD4   1996    3       4045    4046    4048    4047
$ ... 1132 like lines cut
$ Elements and Element Properties for region : Shell_anillos_interiores
$ Composite Property Reference Material: Laminado_anillos_interiores
$ Composite Material Description :
PCOMP    4                       .089    HILL
         1       .183    0.      YES     1       .183    0.      YES
         1       .183    0.      YES     1       .183    0.      YES
         1       .183    0.      YES     1       .183    0.      YES
         1       .183    0.      YES     1       .183    0.      YES
         1       .183    0.      YES     1       .183    0.      YES
$ Pset: "Shell_anillos_interiores" will be imported as: "pcomp.4"
CQUAD4   278     4       564     565     599     598
CQUAD4   279     4       565     566     600     599
CQUAD4   280     4       566     567     601     600
CQUAD4   281     4       567     568     602     601
CQUAD4   282     4       568     569     603     602
CQUAD4   283     4       569     570     604     603
CQUAD4   284     4       570     571     605     604
CQUAD4   285     4       571     572     606     605
CQUAD4   286     4       572     573     607     606
CQUAD4   287     4       573     574     608     607
CQUAD4   288     4       574     575     609     608
CQUAD4   289     4       575     576     610     609
CQUAD4   290     4       576     577     611     610
CQUAD4   291     4       577     578     612     611
CQUAD4   292     4       578     579     613     612
CQUAD4   293     4       579     580     614     613
CTRIA3   294     4       580     615     614
CQUAD4   295     4       580     581     616     615
CQUAD4   296     4       581     582     617     616
CQUAD4   297     4       582     583     618     617
CQUAD4   298     4       583     584     619     618
CQUAD4   299     4       584     585     620     619
CQUAD4   300     4       585     586     621     620
CQUAD4   301     4       586     587     622     621
CQUAD4   302     4       587     588     623     622
CQUAD4   303     4       588     589     624     623
CQUAD4   304     4       589     590     625     624
CQUAD4   305     4       590     591     626     625
CQUAD4   306     4       591     592     627     626
CQUAD4   307     4       592     593     628     627
CQUAD4   308     4       593     594     629     628
CQUAD4   309     4       594     595     630     629
CQUAD4   310     4       595     596     631     630
CQUAD4   311     4       596     597     632     631
CQUAD4   312     4       633     635     636     634
CQUAD4   313     4       635     637     638     636
CQUAD4   314     4       637     639     640     638
$ ... 40 like lines cut
CTRIA3   355     4       696     749     748
CQUAD4   356     4       696     697     750     749
CQUAD4   357     4       697     698     751     750
CQUAD4   358     4       698     699     752     751
CQUAD4   359     4       699     700     753     752
CQUAD4   360     4       700     701     754     753
CQUAD4   361     4       701     702     755     754
CQUAD4   362     4       702     703     756     755
CQUAD4   363     4       703     704     757     756
CQUAD4   364     4       704     705     758     757
CQUAD4   365     4       705     706     759     758
CQUAD4   366     4       706     707     760     759
CQUAD4   367     4       707     708     761     760
CQUAD4   368     4       708     709     762     761
CQUAD4   369     4       709     710     763     762
CQUAD4   370     4       710     711     764     763
CQUAD4   371     4       711     712     765     764
CQUAD4   372     4       712     713     766     765
CQUAD4   373     4       713     714     767     766
CQUAD4   374     4       714     715     768     767
CQUAD4   375     4       715     716     769     768
$ ... 112 like lines cut
CTRIA3   488     4       957     3928    1029
CQUAD4   489     4       957     958     1031    3928
CQUAD4   490     4       958     959     1032    1031
CQUAD4   491     4       959     960     1033    1032
CQUAD4   492     4       960     961     1034    1033
CQUAD4   493     4       961     962     1035    1034
CQUAD4   494     4       962     963     1036    1035
CQUAD4   495     4       963     964     1037    1036
CQUAD4   496     4       964     965     1038    1037
CQUAD4   497     4       965     966     1039    1038
CQUAD4   498     4       966     967     1040    1039
CQUAD4   499     4       967     968     1041    1040
CQUAD4   500     4       968     969     1042    1041
CQUAD4   501     4       969     970     1043    1042
CQUAD4   502     4       970     971     1044    1043
CQUAD4   503     4       971     972     1045    1044
CQUAD4   504     4       972     973     1046    1045
CQUAD4   505     4       973     974     1047    1046
CQUAD4   506     4       974     975     3766    1047
CQUAD4   507     4       975     976     1049    3766
CQUAD4   508     4       976     977     1050    1049
$ ... 43 like lines cut
CTRIA3   552     4       1094    1151    1150
CQUAD4   553     4       1094    1095    1152    1151
CQUAD4   554     4       1095    1096    1153    1152
CQUAD4   555     4       1096    1097    1154    1153
CQUAD4   556     4       1097    1098    1155    1154
CQUAD4   557     4       1098    1099    1156    1155
CQUAD4   558     4       1099    1100    1157    1156
CQUAD4   559     4       1100    1101    1158    1157
CQUAD4   560     4       1101    1102    1159    1158
CQUAD4   561     4       1102    1103    1160    1159
CQUAD4   562     4       1103    1104    1161    1160
CQUAD4   563     4       1104    1105    1162    1161
CQUAD4   564     4       1105    1106    1163    1162
CQUAD4   565     4       1106    1107    1164    1163
CQUAD4   566     4       1107    1108    1165    1164
CQUAD4   567     4       1108    1109    1166    1165
CQUAD4   568     4       1109    1110    1167    1166
CQUAD4   569     4       1110    1111    1168    1167
CQUAD4   570     4       1111    1112    1169    1168
CQUAD4   571     4       1112    1113    1170    1169
CQUAD4   572     4       1113    1114    1171    1170
$ ... 80 like lines cut
CTRIA3   653     4       1284    1371    1370
CQUAD4   654     4       1284    1285    1372    1371
CQUAD4   655     4       1285    1286    1373    1372
CQUAD4   656     4       1286    1287    1374    1373
CQUAD4   657     4       1287    1288    1375    1374
CQUAD4   658     4       1288    1289    1376    1375
CQUAD4   659     4       1289    1290    1377    1376
CQUAD4   660     4       1290    1291    1378    1377
CQUAD4   661     4       1291    1292    1379    1378
CQUAD4   662     4       1292    1293    1380    1379
CQUAD4   663     4       1293    1294    3805    1380
CQUAD4   664     4       1294    1295    1382    3805
CQUAD4   665     4       1295    1296    1383    1382
CQUAD4   666     4       1296    1297    1384    1383
CQUAD4   667     4       1297    1298    1385    1384
CQUAD4   668     4       1298    1299    1386    1385
CQUAD4   669     4       1299    1300    1387    1386
CQUAD4   670     4       1300    1301    1388    1387
CQUAD4   671     4       1301    1302    1389    1388
CQUAD4   672     4       1302    1303    1390    1389
CQUAD4   673     4       1303    1304    1391    1390
$ ... 23 like lines cut
$ Referenced Material Records
$ Material Record : Anillos
$ Description of Material : Date: 24-Nov-21           Time: 11:45:07
MAT8*    1               158.489         8.9490004       .315611
*        4.6490002       4.6490002       4.6490002       .00158
                                 2.233   1.418   .051    .255    .089
$ Material Record : Rigidizadores
$ Description of Material : Date: 24-Nov-21           Time: 11:45:07
MAT8*    2               140.93201       9.712           .356
*        4.6499991       4.6499991       4.6499991       .00158
                                 2.233   1.418   .051    .255    .089
$ Multipoint Constraints of the Entire Model
$ ID conflict : the PATRAN MPC ID was 1
RBE2     4029    563     3       16      17      18      19      20
         21      22      23      24      25      26      27      28
         29      30      31      32      33      34      35      36
         37      38      39      40      41      42      43      44
         45      46      47      48      49      50      51      52
         53      54      55      56      57      58      59      60
         61      62      63      64      65      66      67      68
         69      70      112     113     114     115     116     117
         118     119     120     121     122     123     124     125
         126     127     128     129     130     131     132     133
         134     135     136     137     138
$ Nodes of the Entire Model
GRID*    1                              51.4936447143555-3.0197090488-14
*       275.170379638672
GRID*    2                              51.33279037475594.06802988052368
*       275.170379638672
GRID*    3                              50.85108184814458.11064720153809
*       275.170379638672
GRID*    4                              50.051452636718812.1024312973022
*       275.170379638672
GRID*    5                              48.9387321472168 16.019006729126
*       275.170379638672
GRID*    6                              47.520195007324219.8349456787109
*       275.170379638672
GRID*    7                              45.804729461669923.5267543792725
*       275.170379638672
GRID*    8                               43.80297851562527.0716800689697
*       275.170379638672
GRID*    9                              41.527370452880930.4476451873779
*       275.170379638672
GRID*    10                             38.992485046386733.6330223083496
*       275.170379638672
GRID*    11                             36.213600158691436.6085205078125
*       275.170379638672
GRID*    12                             33.208591461181639.3548851013184
*       275.170379638672
GRID*    13                              29.99560546875 41.8554611206055
*       275.170379638672
GRID*    14                             26.595197677612344.0942230224609
*       275.170379638672
GRID*    15                             23.028659820556646.0573272705078
*       275.170379638672
GRID*    16                             50.1999969482422 -3.019806627-14
*        280.
GRID*    17                             50.04318237304693.96583151817322
*        280.
GRID*    18                             49.57352828979497.90719842910767
*        280.
GRID*    19                             48.794036865234411.7983922958374
*        280.
GRID*    20                             47.709274291992215.6165552139282
*        280.
$ ... 1050 like lines cut
GRID     563             0.      0.      450.
GRID*    564                            -64.9777221679692.198529909947-5
*       224.829635620117
GRID*    565                            -64.8542633056644.00335550308228
*       224.829635620117
GRID*    566                            -64.4843978881847.99147701263428
*       224.829635620117
GRID*    567                             -63.86954498291 11.94908618927
*       224.829635620117
GRID*    568                            -63.01196670532215.8615884780884
*       224.829635620117
GRID*    569                            -61.91500091552719.7136783599854
*       224.829635620117
GRID*    570                            -60.58279037475623.4908657073975
*       224.829635620117
GRID*    571                            -59.02039337158227.1787986755371
*       224.829635620117
GRID*    572                            -57.23374938964830.7634620666504
*       224.829635620117
GRID*    573                            -55.22964859008834.2312431335449
*       224.829635620117
GRID*    574                            -53.01570129394537.5689544677734
*       224.829635620117
GRID*    575                            -50.60031890869140.7639312744141
*       224.829635620117
GRID*    576                            -47.99267959594743.8040199279785
*       224.829635620117
GRID*    577                            -45.202693939209 46.677677154541
*       224.829635620117
GRID*    578                            -42.24096298217849.3739776611328
*       224.829635620117
GRID*    579                            -39.11873245239351.8826866149902
*       224.829635620117
GRID*    580                            -35.847873687744 54.194263458252
*       224.829635620117
GRID*    581                            -32.44081115722756.2999305725098
*       224.829635620117
GRID*    582                            -28.91061782836958.1916198730469
*       224.829635620117
GRID*    583                            -25.27032470703159.8623352050781
*       224.829635620117
$ ... 11072 like lines cut
GRID     6343            -150.   -150.   0.
GRID     6344            -140.   -150.   0.
GRID     6345            -130.   -150.   0.
GRID     6346            -120.   -150.   0.
GRID     6347            -110.   -150.   0.
GRID     6348            -100.   -150.   0.
GRID     6349            -90.    -150.   0.
GRID*    6350                           -80.000007629395 -150.
*        0.
GRID*    6351                           -69.999992370605 -150.
*        0.
GRID*    6352                           -60.000003814697 -150.
*        0.
GRID*    6353                           -50.000007629395 -150.
*        0.
GRID*    6354                           -40.000007629395 -150.
*        0.
GRID*    6355                           -30.000007629395 -150.
*        0.
GRID*    6356                           -20.000007629395 -150.
*        0.
GRID*    6357                           -10.000008583069 -150.
*        0.
GRID*    6358                           -8.94069671631-6 -150.
*        0.
GRID*    6359                           10.0000085830688 -150.
*        0.
GRID*    6360                           19.9999980926514 -150.
*        0.
GRID*    6361                           30.0000076293945 -150.
*        0.
GRID*    6362                           40.0000152587891 -150.
*        0.
GRID*    6363                           50.0000228881836 -150.
*        0.
GRID*    6364                           60.0000305175781 -150.
*        0.
GRID*    6365                           70.0000381469727 -150.
*        0.
GRID*    6366                           80.0000457763672 -150.
*        0.
GRID*    6367                           90.0000610351563 -150.
*        0.
GRID*    6368                           100.000068664551 -150.
*        0.
GRID*    6369                           110.000076293945 -150.
*        0.
GRID*    6370                            120.00008392334 -150.
*        0.
GRID*    6371                           130.000091552734 -150.
*        0.
GRID*    6372                           140.000091552734 -150.
*        0.
GRID     6373            150.    -150.   0.
GRID     6374            -150.   -140.   0.
GRID     6375            -140.   -140.   0.
GRID     6376            -130.   -140.   0.
GRID     6377            -120.   -140.   0.
GRID     6378            -110.   -140.   0.
GRID     6379            -100.   -140.   0.
GRID     6380            -90.    -140.   0.
GRID*    6381                           -80.000007629395 -140.
*        0.
GRID*    6382                           -69.999992370605 -140.
*        0.
GRID*    6383                           -60.000003814697 -140.
*        0.
GRID*    6384                           -50.000007629395 -140.
*        0.
GRID*    6385                           -40.000007629395 -140.
*        0.
GRID*    6386                           -30.000007629395 -140.
*        0.
GRID*    6387                           -20.000007629395 -140.
*        0.
GRID*    6388                           -10.000008583069 -140.
*        0.
GRID*    6389                           -8.94069671631-6 -140.
*        0.
GRID*    6390                           10.0000085830688 -140.
*        0.
GRID*    6391                           19.9999980926514 -140.
*        0.
GRID*    6392                           30.0000076293945 -140.
*        0.
GRID*    6393                           40.0000152587891 -140.
*        0.
GRID*    6394                           50.0000228881836 -140.
*        0.
GRID*    6395                           60.0000305175781 -140.
*        0.
GRID*    6396                           70.0000381469727 -140.
*        0.
GRID*    6397                           80.0000457763672 -140.
*        0.
GRID*    6398                           90.0000610351563 -140.
*        0.
GRID*    6399                           100.000068664551 -140.
*        0.
GRID*    6400                           110.000076293945 -140.
*        0.
GRID*    6401                            120.00008392334 -140.
*        0.
GRID*    6402                           130.000091552734 -140.
*        0.
GRID*    6403                           140.000091552734 -140.
*        0.
GRID     6404            150.    -140.   0.
GRID     6405            -150.   -130.   0.
GRID     6406            -140.   -130.   0.
GRID     6407            -130.   -130.   0.
GRID     6408            -120.   -130.   0.
GRID     6409            -110.   -130.   0.
GRID     6410            -100.   -130.   0.
GRID     6411            -90.    -130.   0.
GRID*    6412                           -80.000007629395 -130.
*        0.
GRID*    6413                           -69.999992370605 -130.
*        0.
GRID*    6414                           -60.000003814697 -130.
*        0.
GRID*    6415                           -50.000007629395 -130.
*        0.
GRID*    6416                           -40.000007629395 -130.
*        0.
GRID*    6417                           -30.000007629395 -130.
*        0.
GRID*    6418                           -20.000007629395 -130.
*        0.
GRID*    6419                           -10.000008583069 -130.
*        0.
GRID*    6420                           -8.94069671631-6 -130.
*        0.
GRID*    6421                           10.0000085830688 -130.
*        0.
GRID*    6422                           19.9999980926514 -130.
*        0.
GRID*    6423                           30.0000076293945 -130.
*        0.
GRID*    6424                           40.0000152587891 -130.
*        0.
GRID*    6425                           50.0000228881836 -130.
*        0.
GRID*    6426                           60.0000305175781 -130.
*        0.
GRID*    6427                           70.0000381469727 -130.
*        0.
GRID*    6428                           80.0000457763672 -130.
*        0.
GRID*    6429                           90.0000610351563 -130.
*        0.
GRID*    6430                           100.000068664551 -130.
*        0.
GRID*    6431                           110.000076293945 -130.
*        0.
GRID*    6432                            120.00008392334 -130.
*        0.
GRID*    6433                           130.000091552734 -130.
*        0.
GRID*    6434                           140.000091552734 -130.
*        0.
GRID     6435            150.    -130.   0.
GRID     6436            -150.   -120.   0.
GRID     6437            -140.   -120.   0.
GRID     6438            -130.   -120.   0.
GRID     6439            -120.   -120.   0.
GRID     6440            -110.   -120.   0.
GRID     6441            -100.   -120.   0.
GRID     6442            -90.    -120.   0.
GRID*    6443                           -80.000007629395 -120.
*        0.
GRID*    6444                           -69.999992370605 -120.
*        0.
GRID*    6445                           -60.000003814697 -120.
*        0.
GRID*    6446                           -50.000007629395 -120.
*        0.
GRID*    6447                           -40.000007629395 -120.
*        0.
GRID*    6448                           -30.000007629395 -120.
*        0.
GRID*    6449                           -20.000007629395 -120.
*        0.
GRID*    6450                           -10.000008583069 -120.
*        0.
GRID*    6451                           -8.94069671631-6 -120.
*        0.
GRID*    6452                           10.0000085830688 -120.
*        0.
GRID*    6453                           19.9999980926514 -120.
*        0.
GRID*    6454                           30.0000076293945 -120.
*        0.
GRID*    6455                           40.0000152587891 -120.
*        0.
GRID*    6456                           50.0000228881836 -120.
*        0.
GRID*    6457                           60.0000305175781 -120.
*        0.
GRID*    6458                           70.0000381469727 -120.
*        0.
GRID*    6459                           80.0000457763672 -120.
*        0.
GRID*    6460                           90.0000610351563 -120.
*        0.
GRID*    6461                           100.000068664551 -120.
*        0.
GRID*    6462                           110.000076293945 -120.
*        0.
GRID*    6463                            120.00008392334 -120.
*        0.
GRID*    6464                           130.000091552734 -120.
*        0.
GRID*    6465                           140.000091552734 -120.
*        0.
GRID     6466            150.    -120.   0.
GRID     6467            -150.   -110.   0.
GRID     6468            -140.   -110.   0.
GRID     6469            -130.   -110.   0.
GRID     6470            -120.   -110.   0.
GRID     6471            -110.   -110.   0.
GRID     6472            -100.   -110.   0.
GRID     6473            -90.    -110.   0.
GRID*    6474                           -80.000007629395 -110.
*        0.
GRID*    6475                           -69.999992370605 -110.
*        0.
GRID*    6476                           -60.000003814697 -110.
*        0.
GRID*    6477                           -50.000007629395 -110.
*        0.
GRID*    6478                           -40.000007629395 -110.
*        0.
GRID*    6479                           -30.000007629395 -110.
*        0.
GRID*    6480                           -20.000007629395 -110.
*        0.
GRID*    6481                           -10.000008583069 -110.
*        0.
GRID*    6482                           -8.94069671631-6 -110.
*        0.
GRID*    6483                           10.0000085830688 -110.
*        0.
GRID*    6484                           19.9999980926514 -110.
*        0.
GRID*    6485                           30.0000076293945 -110.
*        0.
GRID*    6486                           40.0000152587891 -110.
*        0.
GRID*    6487                           50.0000228881836 -110.
*        0.
GRID*    6488                           60.0000305175781 -110.
*        0.
GRID*    6489                           70.0000381469727 -110.
*        0.
GRID*    6490                           80.0000457763672 -110.
*        0.
GRID*    6491                           90.0000610351563 -110.
*        0.
GRID*    6492                           100.000068664551 -110.
*        0.
GRID*    6493                           110.000076293945 -110.
*        0.
GRID*    6494                            120.00008392334 -110.
*        0.
GRID*    6495                           130.000091552734 -110.
*        0.
GRID*    6496                           140.000091552734 -110.
*        0.
GRID     6497            150.    -110.   0.
GRID     6498            -150.   -100.   0.
GRID     6499            -140.   -100.   0.
GRID     6500            -130.   -100.   0.
GRID     6501            -120.   -100.   0.
GRID     6502            -110.   -100.   0.
GRID     6503            -100.   -100.   0.
GRID     6504            -90.    -100.   0.
GRID*    6505                           -80.000007629395 -100.
*        0.
GRID*    6506                           -69.999992370605 -100.
*        0.
GRID*    6507                           -60.000003814697 -100.
*        0.
GRID*    6508                           -50.000007629395 -100.
*        0.
GRID*    6509                           -40.000007629395 -100.
*        0.
GRID*    6510                           -30.000007629395 -100.
*        0.
GRID*    6511                           -20.000007629395 -100.
*        0.
GRID*    6512                           -10.000008583069 -100.
*        0.
GRID*    6513                           -8.94069671631-6 -100.
*        0.
GRID*    6514                           10.0000085830688 -100.
*        0.
GRID*    6515                           19.9999980926514 -100.
*        0.
GRID*    6516                           30.0000076293945 -100.
*        0.
GRID*    6517                           40.0000152587891 -100.
*        0.
GRID*    6518                           50.0000228881836 -100.
*        0.
GRID*    6519                           60.0000305175781 -100.
*        0.
GRID*    6520                           70.0000381469727 -100.
*        0.
GRID*    6521                           80.0000457763672 -100.
*        0.
GRID*    6522                           90.0000610351563 -100.
*        0.
GRID*    6523                           100.000068664551 -100.
*        0.
GRID*    6524                           110.000076293945 -100.
*        0.
GRID*    6525                            120.00008392334 -100.
*        0.
GRID*    6526                           130.000091552734 -100.
*        0.
GRID*    6527                           140.000091552734 -100.
*        0.
GRID     6528            150.    -100.   0.
GRID     6529            -150.   -90.    0.
GRID     6530            -140.   -90.    0.
GRID     6531            -130.   -90.    0.
GRID     6532            -120.   -90.    0.
GRID     6533            -110.   -90.    0.
GRID     6534            -100.   -90.    0.
GRID     6535            -90.    -90.    0.
GRID*    6536                           -80.000007629395 -90.
*        0.
GRID*    6537                           -69.999992370605 -90.
*        0.
GRID*    6538                           -60.000003814697 -90.
*        0.
GRID*    6539                           -50.000007629395 -90.
*        0.
GRID*    6540                           -40.000007629395 -90.
*        0.
GRID*    6541                           -30.000007629395 -90.
*        0.
GRID*    6542                           -20.000007629395 -90.
*        0.
GRID*    6543                           -10.000008583069 -90.
*        0.
GRID*    6544                           -8.94069671631-6 -90.
*        0.
GRID*    6545                           10.0000085830688 -90.
*        0.
GRID*    6546                           19.9999980926514 -90.
*        0.
GRID*    6547                           30.0000076293945 -90.
*        0.
GRID*    6548                           40.0000152587891 -90.
*        0.
GRID*    6549                           50.0000228881836 -90.
*        0.
GRID*    6550                           60.0000305175781 -90.
*        0.
GRID*    6551                           70.0000381469727 -90.
*        0.
GRID*    6552                           80.0000457763672 -90.
*        0.
GRID*    6553                           90.0000610351563 -90.
*        0.
GRID*    6554                           100.000068664551 -90.
*        0.
GRID*    6555                           110.000076293945 -90.
*        0.
GRID*    6556                            120.00008392334 -90.
*        0.
GRID*    6557                           130.000091552734 -90.
*        0.
GRID*    6558                           140.000091552734 -90.
*        0.
GRID     6559            150.    -90.    0.
GRID*    6560                            -150.          -80.000007629395
*        0.
GRID*    6561                            -140.          -80.000007629395
*        0.
GRID*    6562                            -130.          -80.000007629395
*        0.
GRID*    6563                            -120.          -80.000007629395
*        0.
GRID*    6564                            -110.          -80.000007629395
*        0.
GRID*    6565                            -100.          -80.000007629395
*        0.
GRID*    6566                            -90.           -80.000007629395
*        0.
GRID*    6567                           -80.000007629395-80.000007629395
*        0.
GRID*    6568                           -69.999992370605-80.000007629395
*        0.
GRID*    6569                           -60.000003814697-80.000007629395
*        0.
GRID*    6570                           -50.000007629395-80.000007629395
*        0.
GRID*    6571                           -40.000007629395-80.000007629395
*        0.
GRID*    6572                           -30.000007629395-80.000007629395
*        0.
GRID*    6573                           -20.000007629395-80.000007629395
*        0.
GRID*    6574                           -10.000008583069-80.000007629395
*        0.
GRID*    6575                           -8.94069671631-6-80.000007629395
*        0.
GRID*    6576                           10.0000085830688-80.000007629395
*        0.
GRID*    6577                           19.9999980926514-80.000007629395
*        0.
GRID*    6578                           30.0000076293945-80.000007629395
*        0.
GRID*    6579                           40.0000152587891-80.000007629395
*        0.
$ ... 1386 like lines cut
GRID     7273            -150.   150.    0.
GRID     7274            -140.   150.    0.
GRID     7275            -130.   150.    0.
GRID     7276            -120.   150.    0.
GRID     7277            -110.   150.    0.
GRID     7278            -100.   150.    0.
GRID     7279            -90.    150.    0.
GRID*    7280                           -80.000007629395 150.
*        0.
GRID*    7281                           -69.999992370605 150.
*        0.
GRID*    7282                           -60.000003814697 150.
*        0.
GRID*    7283                           -50.000007629395 150.
*        0.
GRID*    7284                           -40.000007629395 150.
*        0.
GRID*    7285                           -30.000007629395 150.
*        0.
GRID*    7286                           -20.000007629395 150.
*        0.
GRID*    7287                           -10.000008583069 150.
*        0.
GRID*    7288                           -8.94069671631-6 150.
*        0.
GRID*    7289                           10.0000085830688 150.
*        0.
GRID*    7290                           19.9999980926514 150.
*        0.
GRID*    7291                           30.0000076293945 150.
*        0.
GRID*    7292                           40.0000152587891 150.
*        0.
GRID*    7293                           50.0000228881836 150.
*        0.
GRID*    7294                           60.0000305175781 150.
*        0.
GRID*    7295                           70.0000381469727 150.
*        0.
GRID*    7296                           80.0000457763672 150.
*        0.
GRID*    7297                           90.0000610351563 150.
*        0.
GRID*    7298                           100.000068664551 150.
*        0.
GRID*    7299                           110.000076293945 150.
*        0.
GRID*    7300                            120.00008392334 150.
*        0.
GRID*    7301                           130.000091552734 150.
*        0.
GRID*    7302                           140.000091552734 150.
*        0.
GRID     7303            150.    150.    0.
$ Loads for Load Case : Default
SPCADD   2       1
LOAD     2       1.      1.      1
$ Displacement Constraints of Load Set : empotrado
SPC1     1       123456  6343    THRU    7303
$ Deform Body Contact LBC set: anillos_exteriores
BCBODY1  1               3D      DEFORM  6
BSURF    6       1       2       3       4       5       6       7
         8       9       10      11      12      13      14      15
         16      17      18      19      20      21      22      23
         24      25      26      27      28      29      30      31
         32      33      34      35      36      37      38      39
         40      41      42      43      44      45      46      47
         48      49      50      51      52      53      54      55
         56      57      58      59      60      61      62      63
         64      65      66      67      68      69      70      71
         72      73      74      75      76      77      78      79
         80      81      82      83      84      85      86      87
         88      89      90      91      92      93      94      95
         96      97      98      99      100     101     102     103
         104     105     106     107     108     109     110     111
         112     113     114     115     116     117     118     119
         120     121     122     123     124     125     126     127
         128     129     130     131     132     133     134     135
         136     137     138     139     140     141     142     143
         144     145     146     147     148     149     150     151
         152     153     154     155     156     157     158     159
         160     161     162     163     164     165     166     167
$ ... 14 like lines cut
$ Deform Body Contact LBC set: anillos_interiores
BCBODY1  2               3D      DEFORM  7
BSURF    7       278     279     280     281     282     283     284
         285     286     287     288     289     290     291     292
         293     294     295     296     297     298     299     300
         301     302     303     304     305     306     307     308
         309     310     311     312     313     314     315     316
         317     318     319     320     321     322     323     324
         325     326     327     328     329     330     331     332
         333     334     335     336     337     338     339     340
         341     342     343     344     345     346     347     348
         349     350     351     352     353     354     355     356
         357     358     359     360     361     362     363     364
         365     366     367     368     369     370     371     372
         373     374     375     376     377     378     379     380
         381     382     383     384     385     386     387     388
         389     390     391     392     393     394     395     396
         397     398     399     400     401     402     403     404
         405     406     407     408     409     410     411     412
         413     414     415     416     417     418     419     420
         421     422     423     424     425     426     427     428
         429     430     431     432     433     434     435     436
         437     438     439     440     441     442     443     444
$ ... 32 like lines cut
$ Deform Body Contact LBC set: helicoidales_D
BCBODY1  3               3D      DEFORM  8
BSURF    8       697     698     699     700     701     702     703
         704     705     706     707     708     709     710     711
         712     713     714     715     716     717     718     719
         720     721     722     723     724     725     726     727
         728     729     730     731     732     733     734     735
         736     737     738     739     740     741     742     743
         744     745     746     747     748     749     750     751
         752     753     754     755     756     757     758     759
         760     761     762     763     764     765     766     767
         768     769     770     771     772     773     774     775
         776     777     778     779     780     781     782     783
         784     785     786     787     788     789     790     791
         792     793     794     795     796     797     798     799
         800     801     802     803     804     805     806     807
         808     809     810     811     812     813     814     815
         816     817     818     819     820     821     822     823
         824     825     826     827     828     829     830     831
         832     833     834     835     836     837     838     839
         840     841     842     843     844     845     846     847
         848     849     850     851     852     853     854     855
         856     857     858     859     860     861     862     863
$ ... 60 like lines cut
$ Deform Body Contact LBC set: helicoidales_I
BCBODY1  4               3D      DEFORM  9
BSURF    9       1337    1338    1339    1340    1341    1342    1343
         1344    1345    1346    1347    1348    1349    1350    1351
         1352    1353    1354    1355    1356    1357    1358    1359
         1360    1361    1362    1363    1364    1365    1366    1367
         1368    1369    1370    1371    1372    1373    1374    1375
         1376    1377    1378    1379    1380    1381    1382    1383
         1384    1385    1386    1387    1388    1389    1390    1391
         1392    1393    1394    1395    1396    1397    1398    1399
         1400    1401    1402    1403    1404    1405    1406    1407
         1408    1409    1410    1411    1412    1413    1414    1415
         1416    1417    1418    1419    1420    1421    1422    1423
         1424    1425    1426    1427    1428    1429    1430    1431
         1432    1433    1434    1435    1436    1437    1438    1439
         1440    1441    1442    1443    1444    1445    1446    1447
         1448    1449    1450    1451    1452    1453    1454    1455
         1456    1457    1458    1459    1460    1461    1462    1463
         1464    1465    1466    1467    1468    1469    1470    1471
         1472    1473    1474    1475    1476    1477    1478    1479
         1480    1481    1482    1483    1484    1485    1486    1487
         1488    1489    1490    1491    1492    1493    1494    1495
         1496    1497    1498    1499    1500    1501    1502    1503
$ ... 60 like lines cut
$ Deform Body Contact LBC set: verticales
BCBODY1  5               3D      DEFORM  10
BSURF    10      1977    1978    1979    1980    1981    1982    1983
         1984    1985    1986    1987    1988    1989    1990    1991
         1992    1993    1994    1995    1996    1997    1998    1999
         2000    2001    2002    2003    2004    2005    2006    2007
         2008    2009    2010    2011    2012    2013    2014    2015
         2016    2017    2018    2019    2020    2021    2022    2023
         2024    2025    2026    2027    2028    2029    2030    2031
         2032    2033    2034    2035    2036    2037    2038    2039
         2040    2041    2042    2043    2044    2045    2046    2047
         2048    2049    2050    2051    2052    2053    2054    2055
         2056    2057    2058    2059    2060    2061    2062    2063
         2064    2065    2066    2067    2068    2069    2070    2071
         2072    2073    2074    2075    2076    2077    2078    2079
         2080    2081    2082    2083    2084    2085    2086    2087
         2088    2089    2090    2091    2092    2093    2094    2095
         2096    2097    2098    2099    2100    2101    2102    2103
         2104    2105    2106    2107    2108    2109    2110    2111
         2112    2113    2114    2115    2116    2117    2118    2119
         2120    2121    2122    2123    2124    2125    2126    2127
         2128    2129    2130    2131    2132    2133    2134    2135
         2136    2137    2138    2139    2140    2141    2142    2143
$ ... 124 like lines cut
$ Rigid Body Contact LBC set: base
BCBODY1  6       5006    3D      RIGID   11      8006
BCBDPRP  5006            FRIC    .1
BCRIGID  8006            0
BCPATCH  11
         3129    6343    6344    6375    6374
         3130    6344    6345    6376    6375
         3131    6345    6346    6377    6376
         3132    6346    6347    6378    6377
         3133    6347    6348    6379    6378
         3134    6348    6349    6380    6379
         3135    6349    6350    6381    6380
         3136    6350    6351    6382    6381
         3137    6351    6352    6383    6382
         3138    6352    6353    6384    6383
         3139    6353    6354    6385    6384
         3140    6354    6355    6386    6385
         3141    6355    6356    6387    6386
         3142    6356    6357    6388    6387
         3143    6357    6358    6389    6388
         3144    6358    6359    6390    6389
         3145    6359    6360    6391    6390
         3146    6360    6361    6392    6391
         3147    6361    6362    6393    6392
         3148    6362    6363    6394    6393
$ ... 880 like lines cut
$ Nodal Forces of Load Set : Fuerza
FORCE    1       563     0       15.     0.      0.      -1.
$ Referenced Coordinate Frames
ENDDATA c5e7f331
