$ MSC.Nastran input file created on November  27, 2021 at 21:02:52 by
$ Patran 2021.1  (Student Edition)
$ Direct Text Input for Nastran System Cell Section
$ Direct Text Input for File Management Section
$ Direct Text Input for Executive Control
$ Linear Static Analysis, Database
SOL 101
CEND
$ Direct Text Input for Global Case Control Data
TITLE = MSC.Nastran job created on 27-Nov-21 at 19:50:35
ECHO = NONE
   BCONTACT = 0
SUBCASE 1
   SUBTITLE=Default
   NLSTEP = 1
   BCONTACT = 1
   SPC = 2
   LOAD = 2
   DISPLACEMENT(SORT1,REAL)=ALL
   SPCFORCES(SORT1,REAL)=ALL
   STRESS(SORT1,REAL,VONMISES,BILIN)=ALL
   BOUTPUT(SORT1,REAL)=ALL
$ Direct Text Input for this Subcase
BEGIN BULK
$ Direct Text Input for Bulk Data
MDLPRM   HDF5    0
PARAM    POST    0
PARAM   PRTMAXIM YES
BCPARA   0       NLGLUE  0
NLSTEP   1
BCTABL1  0       8001    8002    8003    8004    8005    8006    8007
         8008    8009    8010    8011    8012    8013    8014
BCONECT  8001    3001            5       1
BCONECT  8002    3002            1       1
BCONECT  8003    3003            2       1
BCONECT  8004    3004            3       1
BCONECT  8005    3005            4       1
BCONECT  8006    3006            5       2
BCONECT  8007    3007            2       2
BCONECT  8008    3008            3       2
BCONECT  8009    3009            4       2
BCONECT  8010    3010            5       3
BCONECT  8011    3011            3       3
BCONECT  8012    3012            4       3
BCONECT  8013    3013            5       4
BCONECT  8014    3014            4       4
BCONPRG  3001            COPTM   1061    COPTS   10      ERROR   10.
         ISEARCH 2
BCONPRG  3002            ERROR   10.     IGLUE   4       ISEARCH 2
BCONPRG  3003            ERROR   10.     IGLUE   4       ISEARCH 2
BCONPRG  3004            ERROR   10.     IGLUE   4       ISEARCH 2
BCONPRG  3005            ERROR   10.     IGLUE   4       ISEARCH 2
BCONPRG  3006            ERROR   10.     ISEARCH 2
BCONPRG  3007            ERROR   10.     IGLUE   4       ISEARCH 2
BCONPRG  3008            ERROR   10.     IGLUE   4       ISEARCH 2
BCONPRG  3009            ERROR   10.     IGLUE   4       ISEARCH 2
BCONPRG  3010            ERROR   10.     ISEARCH 2
BCONPRG  3011            ERROR   10.     IGLUE   4       ISEARCH 2
BCONPRG  3012            ERROR   10.     IGLUE   4       ISEARCH 2
BCONPRG  3013            ERROR   10.     ISEARCH 2
BCONPRG  3014            ERROR   10.     IGLUE   4       ISEARCH 2
BCTABL1  1       8001    8002    8003    8004    8005    8006    8007
         8008    8009    8010    8011    8012    8013    8014
$ Elements and Element Properties for region : Shell_anillos
$ Composite Property Reference Material: Laminado_anillos
$ Composite Material Description :
PCOMP    1                       .089    HILL
         1       .183    0.      YES     1       .183    0.      YES
         1       .183    0.      YES     1       .183    0.      YES
         1       .183    0.      YES     1       .183    0.      YES
         1       .183    0.      YES     1       .183    0.      YES
         1       .183    0.      YES     1       .183    0.      YES
$ Pset: "Shell_anillos" will be imported as: "pcomp.1"
CQUAD4   1       1       1       2       4       3
CQUAD4   2       1       3       4       6       5
CQUAD4   3       1       5       6       8       7
CQUAD4   4       1       7       8       10      9
CQUAD4   5       1       9       10      12      11
CQUAD4   6       1       11      12      14      13
CQUAD4   7       1       15      16      33      32
CQUAD4   8       1       16      17      34      33
CQUAD4   9       1       17      18      35      34
CQUAD4   10      1       18      19      36      35
CQUAD4   11      1       19      20      37      36
CQUAD4   12      1       20      21      38      37
CQUAD4   13      1       21      22      39      38
CQUAD4   14      1       22      23      40      39
CQUAD4   15      1       23      24      41      40
CQUAD4   16      1       24      25      42      41
CQUAD4   17      1       25      26      43      42
CQUAD4   18      1       26      27      44      43
CQUAD4   19      1       27      28      45      44
CQUAD4   20      1       28      29      46      45
$ ... 141 like lines cut
CTRIA3   162     1       322     358     357
CQUAD4   163     1       322     323     359     358
CQUAD4   164     1       323     324     360     359
CQUAD4   165     1       324     325     361     360
CQUAD4   166     1       325     326     362     361
CQUAD4   167     1       326     327     363     362
CQUAD4   168     1       327     328     364     363
CQUAD4   169     1       328     329     365     364
CQUAD4   170     1       329     330     366     365
CQUAD4   171     1       330     331     367     366
CQUAD4   172     1       331     332     368     367
CQUAD4   173     1       332     333     369     368
CQUAD4   174     1       333     334     370     369
CQUAD4   175     1       334     335     371     370
CQUAD4   176     1       335     336     372     371
CQUAD4   177     1       336     337     373     372
CQUAD4   178     1       337     338     374     373
CQUAD4   179     1       338     339     375     374
CQUAD4   180     1       376     377     395     394
CQUAD4   181     1       377     378     396     395
CQUAD4   182     1       378     379     397     396
$ ... 36 like lines cut
CTRIA3   219     1       445     473     472
CQUAD4   220     1       445     446     474     473
CQUAD4   221     1       446     447     475     474
CQUAD4   222     1       447     448     476     475
CQUAD4   223     1       448     449     477     476
CQUAD4   224     1       449     450     478     477
CQUAD4   225     1       450     451     479     478
CQUAD4   226     1       451     452     480     479
CQUAD4   227     1       452     453     481     480
CQUAD4   228     1       453     454     482     481
CQUAD4   229     1       454     455     483     482
CQUAD4   230     1       455     456     484     483
CQUAD4   231     1       456     457     485     484
CQUAD4   232     1       457     458     486     485
$ Elements and Element Properties for region : Shell_helicoidales
$ Composite Property Reference Material: Laminado_rigidizadores_helicoid
$ Composite Material Description :
PCOMP    2                       .089    HILL
         2       .183    0.      YES     2       .183    0.      YES
         2       .183    0.      YES     2       .183    0.      YES
         2       .183    0.      YES     2       .183    0.      YES
         2       .183    0.      YES     2       .183    0.      YES
         2       .183    0.      YES     2       .183    0.      YES
$ Pset: "Shell_helicoidales" will be imported as: "pcomp.2"
CQUAD4   233     2       487     488     490     489
CQUAD4   234     2       489     490     492     491
CQUAD4   235     2       491     492     494     493
CQUAD4   236     2       493     494     496     495
CQUAD4   237     2       495     496     498     497
CQUAD4   238     2       497     498     500     499
CQUAD4   239     2       499     500     502     501
CQUAD4   240     2       501     502     504     503
CQUAD4   241     2       503     504     506     505
CQUAD4   242     2       505     506     508     507
CQUAD4   243     2       507     508     510     509
CQUAD4   244     2       509     510     512     511
CQUAD4   245     2       511     512     514     513
CQUAD4   246     2       513     514     516     515
CQUAD4   247     2       515     516     518     517
CQUAD4   248     2       517     518     520     519
CQUAD4   249     2       519     520     522     521
CQUAD4   250     2       521     522     524     523
CQUAD4   251     2       523     524     526     525
CQUAD4   252     2       525     526     528     527
$ ... 940 like lines cut
$ Elements and Element Properties for region : Shell_verticales
$ Composite Property Reference Material: Laminado_rigidizadores_vertical
$ Composite Material Description :
PCOMP    3                       .089    HILL
         2       .183    0.      YES     2       .183    0.      YES
         2       .183    0.      YES     2       .183    0.      YES
         2       .183    0.      YES     2       .183    0.      YES
         2       .183    0.      YES     2       .183    0.      YES
         2       .183    0.      YES     2       .183    0.      YES
$ Pset: "Shell_verticales" will be imported as: "pcomp.3"
CQUAD4   1193    3       2455    2456    2458    2457
CQUAD4   1194    3       2457    2458    2460    2459
CQUAD4   1195    3       2459    2460    2462    2461
CQUAD4   1196    3       2461    2462    2464    2463
CQUAD4   1197    3       2463    2464    2466    2465
CQUAD4   1198    3       2465    2466    2468    2467
CQUAD4   1199    3       2467    2468    2470    2469
CQUAD4   1200    3       2469    2470    2472    2471
CQUAD4   1201    3       2471    2472    2474    2473
CQUAD4   1202    3       2473    2474    2476    2475
CQUAD4   1203    3       2475    2476    2478    2477
CQUAD4   1204    3       2477    2478    2480    2479
CQUAD4   1205    3       2479    2480    2482    2481
CQUAD4   1206    3       2481    2482    2484    2483
CQUAD4   1207    3       2483    2484    2486    2485
CQUAD4   1208    3       2485    2486    2488    2487
CQUAD4   1209    3       2487    2488    2490    2489
CQUAD4   1210    3       2489    2490    2492    2491
CQUAD4   1211    3       2491    2492    2494    2493
CQUAD4   1212    3       2493    2494    2496    2495
$ ... 328 like lines cut
$ Referenced Material Records
$ Material Record : Anillos
$ Description of Material : Date: 24-Nov-21           Time: 11:45:07
MAT8*    1               158.489         8.9490004       .315611
*        4.6490002       4.6490002       4.6490002       1.58
                                 2.233   1.418   .051    .255    .089
$ Material Record : Rigidizadores
$ Description of Material : Date: 24-Nov-21           Time: 11:45:07
MAT8*    2               140.93201       9.712           .356
*        4.6499991       4.6499991       4.6499991       1.58
                                 2.233   1.418   .051    .255    .089
$ Multipoint Constraints of the Entire Model
$ ID conflict : the PATRAN MPC ID was 1
RBE2     1641    3175    3       2       4       6       8       10
         12      14      15      16      17      18      19      20
         21      22      23      24      25      26      27      28
         29      30      31      49      50      51      52      53
         54      55      56      57      58      59      487     488
         569     570     651     652     733     734     815     816
         897     898     979     980     1061    1062    1143    1144
         1225    1226    1307    1308    1389    1390    1471    1472
         1553    1554    1635    1636    1717    1718    1799    1800
         1881    1882    1963    1964    2045    2046    2127    2128
         2209    2210    2291    2292    2373    2374    2513    2514
         2573    2574    2633    2634    2693    2694    2753    2754
         2813    2814    2873    2874    2933    2934    2993    2994
         3053    3054    3113    3114    3173    3174
$ Nodes of the Entire Model
GRID*    1                              51.1936492919922-2.3977307227-14
*       275.170379638672
GRID*    2                              49.9000015258789-2.3980815638-14
*        280.
GRID*    3                               50.3247642517099.39303398132324
*       275.170379638672
GRID*    4                              49.05307388305669.15567493438721
*        280.
GRID*    5                              47.746837615966818.4670639038086
*       275.170379638672
GRID*    6                              46.540290832519518.0004062652588
*        280.
GRID*    7                              43.547733306884826.9140453338623
*       275.170379638672
GRID*    8                              42.447296142578126.2339363098145
*        280.
GRID*    9                              37.870403289794934.4474334716797
*       275.170379638672
GRID*    10                             36.913436889648433.5769500732422
*        280.
GRID*    11                             30.907217025756840.8112106323242
*       275.170379638672
GRID*    12                             30.126201629638739.7799263000488
*        280.
GRID*    13                             22.8945045471191 45.788990020752
*       275.170379638672
GRID*    14                             22.315967559814544.6319160461426
*        280.
GRID*    15                             49.8999900817871-6.56188888115-7
*       280.000030517578
GRID*    16                             48.9411659240723 -9.735027313232
*       280.000030517578
GRID*    17                             46.1015510559082-19.095941543579
*       280.000030517578
GRID*    18                             41.4902725219727-27.723003387451
*       280.000030517578
GRID*    19                              35.284538269043-35.284675598145
*       280.000030517578
GRID*    20                             27.7228336334229-41.490375518799
*       280.000030517578
$ ... 6308 like lines cut
GRID     3175            0.      0.      400.
GRID     3176            0.      0.      0.
GRID     3177            -150.   -120.   0.
GRID     3178            -150.   -90.    0.
GRID*    3179                            -150.          -59.999996185303
*        0.
GRID*    3180                            -150.          -29.999998092651
*        0.
GRID     3181            -150.   0.      0.
GRID*    3182                            -150.          30.0000076293945
*        0.
GRID*    3183                            -150.          60.0000152587891
*        0.
GRID*    3184                            -150.          90.0000228881836
*        0.
GRID*    3185                            -150.          120.000030517578
*        0.
GRID     3186            -150.   150.    0.
GRID     3187            -120.   150.    0.
GRID     3188            -90.    150.    0.
GRID*    3189                           -59.999996185303 150.
*        0.
GRID*    3190                           -29.999998092651 150.
*        0.
GRID     3191            0.      150.    0.
GRID*    3192                           30.0000076293945 150.
*        0.
GRID*    3193                           60.0000152587891 150.
*        0.
GRID*    3194                           90.0000228881836 150.
*        0.
GRID*    3195                           120.000030517578 150.
*        0.
GRID     3196            150.    150.    0.
GRID     3197            150.    -120.   0.
GRID     3198            150.    -90.    0.
GRID*    3199                            150.           -59.999996185303
*        0.
GRID*    3200                            150.           -29.999998092651
*        0.
GRID     3201            150.    0.      0.
GRID*    3202                            150.           30.0000076293945
*        0.
GRID*    3203                            150.           60.0000152587891
*        0.
GRID*    3204                            150.           90.0000228881836
*        0.
GRID*    3205                            150.           120.000030517578
*        0.
GRID     3206            150.    -150.   0.
GRID     3207            -150.   -150.   0.
GRID     3208            -120.   -150.   0.
GRID     3209            -90.    -150.   0.
GRID*    3210                           -59.999996185303 -150.
*        0.
GRID*    3211                           -29.999998092651 -150.
*        0.
GRID     3212            0.      -150.   0.
GRID*    3213                           30.0000076293945 -150.
*        0.
GRID*    3214                           60.0000152587891 -150.
*        0.
GRID*    3215                           90.0000228881836 -150.
*        0.
GRID*    3216                           120.000030517578 -150.
*        0.
GRID     3217            -120.   -120.   0.
GRID     3218            -90.    -120.   0.
GRID*    3219                           -60.000003814697 -120.
*        0.
GRID*    3220                           -30.000007629395 -120.
*        0.
GRID     3221            0.      -120.   0.
GRID*    3222                           29.9999885559082-120.02233123779
*        0.
GRID*    3223                           60.0000152587891 -120.
*        0.
GRID*    3224                           90.0000228881836 -120.
*        0.
GRID*    3225                           120.000030517578 -120.
*        0.
GRID     3226            -120.   -90.    0.
GRID     3227            -90.    -90.    0.
GRID*    3228                           -60.000003814697 -90.
*        0.
GRID*    3229                           -30.000007629395 -90.
*        0.
GRID     3230            0.      -90.    0.
GRID*    3231                           29.9999885559082-90.034362792969
*        0.
GRID*    3232                           60.0000152587891 -90.
*        0.
GRID*    3233                           90.0000228881836 -90.
*        0.
GRID*    3234                           120.000030517578 -90.
*        0.
GRID*    3235                            -120.          -60.000003814697
*        0.
GRID*    3236                            -90.           -60.000003814697
*        0.
GRID*    3237                           -60.000003814697-60.000003814697
*        0.
GRID*    3238                           -30.000007629395-60.000003814697
*        0.
GRID*    3239                            0.             -60.000003814697
*        0.
GRID*    3240                           29.9999713897705-60.045146942139
*        0.
GRID*    3241                           60.0000152587891-60.000003814697
*        0.
GRID*    3242                           90.0000228881836-60.000003814697
*        0.
GRID*    3243                           120.000030517578-60.000003814697
*        0.
GRID*    3244                            -120.          -30.000007629395
*        0.
GRID*    3245                            -90.           -30.000007629395
*        0.
GRID*    3246                           -60.000003814697-30.000007629395
*        0.
GRID*    3247                           -30.000007629395-30.000007629395
*        0.
GRID*    3248                            0.             -30.000007629395
*        0.
GRID*    3249                           29.9999713897705-30.048189163208
*        0.
GRID*    3250                           60.0000152587891-30.000007629395
*        0.
GRID*    3251                           90.0000228881836-30.000007629395
*        0.
GRID*    3252                           120.000030517578-30.000007629395
*        0.
GRID     3253            -120.   0.      0.
GRID     3254            -90.    0.      0.
GRID*    3255                           -60.000003814697-.01662075519562
*        0.
GRID*    3256                           -30.000007629395 0.
*        0.
GRID     3257            0.      0.      0.
GRID*    3258                           29.9999713897705-.05072057247162
*        0.
GRID*    3259                           60.0000152587891 0.
*        0.
GRID*    3260                           90.0000228881836 0.
*        0.
GRID*    3261                           120.000030517578 0.
*        0.
GRID*    3262                            -120.          30.0000076293945
*        0.
GRID*    3263                            -90.           30.0000076293945
*        0.
GRID*    3264                           -60.000003814697 29.983377456665
*        0.
GRID*    3265                           -30.00000762939530.0000076293945
*        0.
GRID*    3266                            0.             30.0000076293945
*        0.
GRID*    3267                           29.999971389770529.9491519927979
*        0.
GRID*    3268                           60.000015258789130.0000076293945
*        0.
GRID*    3269                           90.000022888183630.0000076293945
*        0.
GRID*    3270                           120.00003051757830.0000076293945
*        0.
GRID*    3271                            -120.          60.0000152587891
*        0.
GRID*    3272                            -90.           60.0000152587891
*        0.
GRID*    3273                           -60.00000381469759.9834022521973
*        0.
GRID*    3274                           -30.00000762939560.0000152587891
*        0.
GRID*    3275                            0.             60.0000152587891
*        0.
GRID*    3276                           29.999971389770559.9485855102539
*        0.
GRID*    3277                           60.000015258789160.0000152587891
*        0.
$ ... 12 like lines cut
GRID     3284            0.      90.     0.
GRID*    3285                           29.999971389770589.9480209350586
*        0.
GRID*    3286                           60.0000152587891 90.
*        0.
GRID*    3287                           90.000022888183690.0000228881836
*        0.
GRID*    3288                           120.000030517578 90.
*        0.
GRID*    3289                            -120.          120.000007629395
*        0.
GRID*    3290                            -90.           120.000007629395
*        0.
GRID*    3291                           -60.000003814697119.983413696289
*        0.
GRID*    3292                           -29.998121261597120.010688781738
*        0.
GRID*    3293                           -.00116229057312 119.69303894043
*        0.
GRID*    3294                           29.9949111938477119.923873901367
*        0.
GRID*    3295                           59.9971885681152119.776496887207
*        0.
GRID*    3296                           90.0000228881836120.000007629395
*        0.
GRID*    3297                           120.000030517578119.999992370605
*        0.
$ Loads for Load Case : Default
SPCADD   2       1
LOAD     2       1.      1.      1
$ Displacement Constraints of Load Set : mesa
SPC1     1       123     3177    THRU    3297
$ Deform Body Contact LBC set: anillos_contact
BCBODY1  1               3D      DEFORM  2
BSURF    2       1       2       3       4       5       6       7
         8       9       10      11      12      13      14      15
         16      17      18      19      20      21      22      23
         24      25      26      27      28      29      30      31
         32      33      34      35      36      37      38      39
         40      41      42      43      44      45      46      47
         48      49      50      51      52      53      54      55
         56      57      58      59      60      61      62      63
         64      65      66      67      68      69      70      71
         72      73      74      75      76      77      78      79
         80      81      82      83      84      85      86      87
         88      89      90      91      92      93      94      95
         96      97      98      99      100     101     102     103
         104     105     106     107     108     109     110     111
         112     113     114     115     116     117     118     119
         120     121     122     123     124     125     126     127
         128     129     130     131     132     133     134     135
         136     137     138     139     140     141     142     143
         144     145     146     147     148     149     150     151
         152     153     154     155     156     157     158     159
         160     161     162     163     164     165     166     167
$ ... 9 like lines cut
$ Deform Body Contact LBC set: helicoidales_D_contact
BCBODY1  2               3D      DEFORM  3
BSURF    3       233     234     235     236     237     238     239
         240     241     242     243     244     245     246     247
         248     249     250     251     252     253     254     255
         256     257     258     259     260     261     262     263
         264     265     266     267     268     269     270     271
         272     273     274     275     276     277     278     279
         280     281     282     283     284     285     286     287
         288     289     290     291     292     293     294     295
         296     297     298     299     300     301     302     303
         304     305     306     307     308     309     310     311
         312     313     314     315     316     317     318     319
         320     321     322     323     324     325     326     327
         328     329     330     331     332     333     334     335
         336     337     338     339     340     341     342     343
         344     345     346     347     348     349     350     351
         352     353     354     355     356     357     358     359
         360     361     362     363     364     365     366     367
         368     369     370     371     372     373     374     375
         376     377     378     379     380     381     382     383
         384     385     386     387     388     389     390     391
         392     393     394     395     396     397     398     399
$ ... 40 like lines cut
$ Deform Body Contact LBC set: helicoidales_I_contact
BCBODY1  3               3D      DEFORM  4
BSURF    4       713     714     715     716     717     718     719
         720     721     722     723     724     725     726     727
         728     729     730     731     732     733     734     735
         736     737     738     739     740     741     742     743
         744     745     746     747     748     749     750     751
         752     753     754     755     756     757     758     759
         760     761     762     763     764     765     766     767
         768     769     770     771     772     773     774     775
         776     777     778     779     780     781     782     783
         784     785     786     787     788     789     790     791
         792     793     794     795     796     797     798     799
         800     801     802     803     804     805     806     807
         808     809     810     811     812     813     814     815
         816     817     818     819     820     821     822     823
         824     825     826     827     828     829     830     831
         832     833     834     835     836     837     838     839
         840     841     842     843     844     845     846     847
         848     849     850     851     852     853     854     855
         856     857     858     859     860     861     862     863
         864     865     866     867     868     869     870     871
         872     873     874     875     876     877     878     879
$ ... 40 like lines cut
$ Deform Body Contact LBC set: verticales_contact
BCBODY1  4               3D      DEFORM  5
BSURF    5       1193    1194    1195    1196    1197    1198    1199
         1200    1201    1202    1203    1204    1205    1206    1207
         1208    1209    1210    1211    1212    1213    1214    1215
         1216    1217    1218    1219    1220    1221    1222    1223
         1224    1225    1226    1227    1228    1229    1230    1231
         1232    1233    1234    1235    1236    1237    1238    1239
         1240    1241    1242    1243    1244    1245    1246    1247
         1248    1249    1250    1251    1252    1253    1254    1255
         1256    1257    1258    1259    1260    1261    1262    1263
         1264    1265    1266    1267    1268    1269    1270    1271
         1272    1273    1274    1275    1276    1277    1278    1279
         1280    1281    1282    1283    1284    1285    1286    1287
         1288    1289    1290    1291    1292    1293    1294    1295
         1296    1297    1298    1299    1300    1301    1302    1303
         1304    1305    1306    1307    1308    1309    1310    1311
         1312    1313    1314    1315    1316    1317    1318    1319
         1320    1321    1322    1323    1324    1325    1326    1327
         1328    1329    1330    1331    1332    1333    1334    1335
         1336    1337    1338    1339    1340    1341    1342    1343
         1344    1345    1346    1347    1348    1349    1350    1351
         1352    1353    1354    1355    1356    1357    1358    1359
$ ... 23 like lines cut
BCHANGE  1       NODE    4               1       1       486     1
         2       1       486     1
         3       1       486     1
         4       1       486     1
$ Rigid Body Contact LBC set: Base_contact
BCBODY1  5       5005    3D      RIGID   6       8005
BCBDPRP  5005            FRIC    .1
BCRIGID  8005            0
BCPATCH  6
         1541    3207    3208    3217    3177
         1542    3208    3209    3218    3217
         1543    3209    3210    3219    3218
         1544    3210    3211    3220    3219
         1545    3211    3212    3221    3220
         1546    3212    3213    3222    3221
         1547    3213    3214    3223    3222
         1548    3214    3215    3224    3223
         1549    3215    3216    3225    3224
         1550    3216    3206    3197    3225
         1551    3177    3217    3226    3178
         1552    3217    3218    3227    3226
         1553    3218    3219    3228    3227
         1554    3219    3220    3229    3228
         1555    3220    3221    3230    3229
         1556    3221    3222    3231    3230
         1557    3222    3223    3232    3231
         1558    3223    3224    3233    3232
         1559    3224    3225    3234    3233
         1560    3225    3197    3198    3234
$ ... 80 like lines cut
$ Nodal Forces of Load Set : Fuerza
FORCE    1       3175    0       15.     0.      0.      -1.
$ Referenced Coordinate Frames
ENDDATA 010ba850
