$ MSC.Nastran input file created on November  26, 2021 at 20:01:41 by
$ Patran 2021.1  (Student Edition)
$ Direct Text Input for Nastran System Cell Section
$ Direct Text Input for File Management Section
$ Direct Text Input for Executive Control
$ Linear Static Analysis, Database
SOL 101
CEND
$ Direct Text Input for Global Case Control Data
TITLE = MSC.Nastran job created on 26-Nov-21 at 18:38:52
ECHO = NONE
   BCONTACT = 0
SUBCASE 1
   SUBTITLE=Default
   NLSTEP = 1
   BCONTACT = 1
   SPC = 2
   LOAD = 2
   DISPLACEMENT(SORT1,REAL)=ALL
   SPCFORCES(SORT1,REAL)=ALL
   STRESS(SORT1,REAL,VONMISES,BILIN)=ALL
$ Direct Text Input for this Subcase
BEGIN BULK
$ Direct Text Input for Bulk Data
MDLPRM   HDF5    0
PARAM    POST    0
PARAM   PRTMAXIM YES
BCPARA   0       NLGLUE  0       ERROR   .03     ITOPSH  1061
NLSTEP   1
BCTABL1  0       8001    8002    8003    8004    8005    8006    8007
         8008    8009    8010
BCONECT  8001    3001            1       1
BCONECT  8002    3002            2       1
BCONECT  8003    3003            3       1
BCONECT  8004    3004            4       1
BCONECT  8005    3005            2       2
BCONECT  8006    3006            3       2
BCONECT  8007    3007            4       2
BCONECT  8008    3008            3       3
BCONECT  8009    3009            4       3
BCONECT  8010    3010            4       4
BCONPRG  3001            COPTM   1061    COPTS   1061    ERROR   .03
         IGLUE   4       ISEARCH 2
BCONPRG  3002            ERROR   .03     IGLUE   4       ISEARCH 2
BCONPRG  3003            ERROR   .03     IGLUE   4       ISEARCH 2
BCONPRG  3004            ERROR   .03     IGLUE   4       ISEARCH 2
BCONPRG  3005            ERROR   .03     IGLUE   4       ISEARCH 2
BCONPRG  3006            ERROR   .03     IGLUE   4       ISEARCH 2
BCONPRG  3007            ERROR   .03     IGLUE   4       ISEARCH 2
BCONPRG  3008            ERROR   .03     IGLUE   4       ISEARCH 2
BCONPRG  3009            ERROR   .03     IGLUE   4       ISEARCH 2
BCONPRG  3010            ERROR   .03     IGLUE   4       ISEARCH 2
BCTABL1  1       8001    8002    8003    8004    8005    8006    8007
         8008    8009    8010
$ Elements and Element Properties for region : Shell_anillos
$ Composite Property Reference Material: Laminado_anillos
$ Composite Material Description :
PCOMP    1                       .089    HILL
         1       .183    0.      YES     1       .183    0.      YES
         1       .183    0.      YES     1       .183    0.      YES
         1       .183    0.      YES     1       .183    0.      YES
         1       .183    0.      YES     1       .183    0.      YES
         1       .183    0.      YES     1       .183    0.      YES
$ Pset: "Shell_anillos" will be imported as: "pcomp.1"
CQUAD4   1       1       1       2       28      27
CQUAD4   2       1       2       3       29      28
CQUAD4   3       1       3       4       30      29
CQUAD4   4       1       4       5       31      30
CQUAD4   5       1       5       6       32      31
CQUAD4   6       1       6       7       33      32
CQUAD4   7       1       7       8       34      33
CQUAD4   8       1       8       9       35      34
CQUAD4   9       1       9       10      36      35
CQUAD4   10      1       10      11      37      36
CQUAD4   11      1       11      12      38      37
CQUAD4   12      1       12      13      39      38
CQUAD4   13      1       13      14      40      39
CQUAD4   14      1       14      15      41      40
CQUAD4   15      1       15      16      42      41
CQUAD4   16      1       16      17      43      42
CQUAD4   17      1       17      18      44      43
CQUAD4   18      1       18      19      45      44
CQUAD4   19      1       19      20      46      45
CQUAD4   20      1       20      21      47      46
$ ... 211 like lines cut
$ Elements and Element Properties for region : Shell_helicoidales
$ Composite Property Reference Material: Laminado_rigidizadores_helicoid
$ Composite Material Description :
PCOMP    2                       .089    HILL
         2       .183    0.      YES     2       .183    0.      YES
         2       .183    0.      YES     2       .183    0.      YES
         2       .183    0.      YES     2       .183    0.      YES
         2       .183    0.      YES     2       .183    0.      YES
         2       .183    0.      YES     2       .183    0.      YES
$ Pset: "Shell_helicoidales" will be imported as: "pcomp.2"
CQUAD4   234     2       491     492     494     493
CQUAD4   235     2       493     494     496     495
CQUAD4   236     2       495     496     498     497
CQUAD4   237     2       497     498     500     499
CQUAD4   238     2       499     500     502     501
CQUAD4   239     2       501     502     504     503
CQUAD4   240     2       503     504     506     505
CQUAD4   241     2       505     506     508     507
CQUAD4   242     2       507     508     510     509
CQUAD4   243     2       509     510     512     511
CQUAD4   244     2       511     512     514     513
CQUAD4   245     2       513     514     516     515
CQUAD4   246     2       515     516     518     517
CQUAD4   247     2       517     518     520     519
CQUAD4   248     2       519     520     522     521
CQUAD4   249     2       521     522     524     523
CQUAD4   250     2       523     524     526     525
CQUAD4   251     2       525     526     528     527
CQUAD4   252     2       527     528     530     529
CQUAD4   253     2       529     530     532     531
$ ... 940 like lines cut
$ Elements and Element Properties for region : Shell_verticales
$ Composite Property Reference Material: Laminado_rigidizadores_vertical
$ Composite Material Description :
PCOMP    3                       .089    HILL
         2       .183    0.      YES     2       .183    0.      YES
         2       .183    0.      YES     2       .183    0.      YES
         2       .183    0.      YES     2       .183    0.      YES
         2       .183    0.      YES     2       .183    0.      YES
         2       .183    0.      YES     2       .183    0.      YES
$ Pset: "Shell_verticales" will be imported as: "pcomp.3"
CQUAD4   1194    3       2459    2460    2462    2461
CQUAD4   1195    3       2461    2462    2464    2463
CQUAD4   1196    3       2463    2464    2466    2465
CQUAD4   1197    3       2465    2466    2468    2467
CQUAD4   1198    3       2467    2468    2470    2469
CQUAD4   1199    3       2469    2470    2472    2471
CQUAD4   1200    3       2471    2472    2474    2473
CQUAD4   1201    3       2473    2474    2476    2475
CQUAD4   1202    3       2475    2476    2478    2477
CQUAD4   1203    3       2477    2478    2480    2479
CQUAD4   1204    3       2479    2480    2482    2481
CQUAD4   1205    3       2481    2482    2484    2483
CQUAD4   1206    3       2483    2484    2486    2485
CQUAD4   1207    3       2485    2486    2488    2487
CQUAD4   1208    3       2487    2488    2490    2489
CQUAD4   1209    3       2489    2490    2492    2491
CQUAD4   1210    3       2491    2492    2494    2493
CQUAD4   1211    3       2493    2494    2496    2495
CQUAD4   1212    3       2495    2496    2498    2497
CQUAD4   1213    3       2497    2498    2500    2499
$ ... 328 like lines cut
$ Referenced Material Records
$ Material Record : Anillos
$ Description of Material : Date: 24-Nov-21           Time: 11:45:07
MAT8*    1               158.489         8.9490004       .315611
*        4.6490002       4.6490002       4.6490002       1.58
                                 2.233   1.418   .051    .255    .089
$ Material Record : Rigidizadores
$ Description of Material : Date: 24-Nov-21           Time: 11:45:07
MAT8*    2               140.93201       9.712           .356
*        4.6499991       4.6499991       4.6499991       1.58
                                 2.233   1.418   .051    .255    .089
$ Multipoint Constraints of the Entire Model
$ ID conflict : the PATRAN MPC ID was 1
RBE2     1542    3180    3       421     422     423     424     425
         426     427     428     429     430     431     443     444
         445     446     447     448     449     450     451     452
         453     454     455     456     457     458     459     478
         480     482     484     486     488     490     491     492
         573     574     655     656     737     738     819     820
         901     902     983     984     1065    1066    1147    1148
         1229    1230    1311    1312    1393    1394    1475    1476
         1557    1558    1639    1640    1721    1722    1803    1804
         1885    1886    1967    1968    2049    2050    2131    2132
         2213    2214    2295    2296    2377    2378    2517    2518
         2577    2578    2637    2638    2697    2698    2757    2758
         2817    2818    2877    2878    2937    2938    2997    2998
         3057    3058    3117    3118    3177    3178
$ Nodes of the Entire Model
GRID*    1                              -123.79306793213-5.27635129401-5
*        4.50634765625
GRID*    2                              -123.3833618164110.0631113052368
*        4.50634765625
GRID*    3                              -122.15705871582 20.059139251709
*        4.50634765625
GRID*    4                              -120.1222763061529.9224052429199
*        4.50634765625
GRID*    5                              -117.2923202514639.5881385803223
*        4.50634765625
GRID*    6                              -113.6859970092848.9918365478516
*        4.50634765625
GRID*    7                               -109.327430725158.0707817077637
*        4.50634765625
GRID*    8                              -104.2452926635766.7654037475586
*        4.50634765625
GRID*    9                               -98.4729080200275.0185623168945
*        4.50634765625
GRID*    10                             -92.04872131347782.7751770019531
*        4.50634765625
GRID*    11                             -85.015647888184 89.983528137207
*        4.50634765625
GRID*    12                             -77.41991424560596.5963363647461
*        4.50634765625
GRID*    13                             -69.311340332031102.570129394531
*        4.50634765625
GRID*    14                             -60.744003295898107.865005493164
*        4.50634765625
GRID*    15                             -51.775062561035112.445709228516
*        4.50634765625
GRID*    16                             -42.463466644287116.282196044922
*        4.50634765625
GRID*    17                             -32.870342254639119.349227905273
*        4.50634765625
GRID*    18                             -23.059631347656121.626281738281
*        4.50634765625
GRID*    19                             -13.096795082092 123.09822845459
*        4.50634765625
GRID*    20                             -3.0473239421844123.755470275879
*        4.50634765625
$ ... 6316 like lines cut
GRID     3179            0.      0.      300.
GRID     3180            0.      0.      300.
$ Loads for Load Case : Default
SPCADD   2       1       3       4
LOAD     2       1.      1.      1
$ Displacement Constraints of Load Set : SoloZ
SPC1     1       3       27      THRU    52
SPC1     1       3       93      THRU    133
SPC1     1       3       135     137     139     142     144     146
         147     149     151     153     156     158     160     161
         571     572     653     654     735     736     817     818
         899     900     981     982     1063    1064    1145    1146
         1227    1228    1309    1310    1391    1392    1473    1474
         1555    1556    1637    1638    1719    1720    1801    1802
         1883    1884    1965    1966    2047    2048    2129    2130
         2211    2212    2293    2294    2375    2376    2457    2458
         2459    2460    2519    2520    2579    2580    2639    2640
         2699    2700    2759    2760    2819    2820    2879    2880
         2939    2940    2999    3000    3059    3060    3119    3120
$ Displacement Constraints of Load Set : Anclaje
SPC1     3       12      2293
$ Displacement Constraints of Load Set : Giro
SPC1     4       1       1801
$ Deform Body Contact LBC set: Anillo_contact
BCBODY1  1               3D      DEFORM  5
BSURF    5       1       2       3       4       5       6       7
         8       9       10      11      12      13      14      15
         16      17      18      19      20      21      22      23
         24      25      26      27      28      29      30      31
         32      33      34      35      36      37      38      39
         40      41      42      43      44      45      46      47
         48      49      50      51      52      53      54      55
         56      57      58      59      60      61      62      63
         64      65      66      67      68      69      70      71
         72      73      74      75      76      77      78      79
         80      81      82      83      84      85      86      87
         88      89      90      91      92      93      94      95
         96      97      98      99      100     101     102     103
         104     105     106     107     108     109     110     111
         112     113     114     115     116     117     118     119
         120     121     122     123     124     125     126     127
         128     129     130     131     132     133     134     135
         136     137     138     139     140     141     142     143
         144     145     146     147     148     149     150     151
         152     153     154     155     156     157     158     159
         160     161     162     163     164     165     166     167
$ ... 9 like lines cut
$ Deform Body Contact LBC set: Helicoidales_D_contact
BCBODY1  2               3D      DEFORM  6
BSURF    6       234     235     236     237     238     239     240
         241     242     243     244     245     246     247     248
         249     250     251     252     253     254     255     256
         257     258     259     260     261     262     263     264
         265     266     267     268     269     270     271     272
         273     274     275     276     277     278     279     280
         281     282     283     284     285     286     287     288
         289     290     291     292     293     294     295     296
         297     298     299     300     301     302     303     304
         305     306     307     308     309     310     311     312
         313     314     315     316     317     318     319     320
         321     322     323     324     325     326     327     328
         329     330     331     332     333     334     335     336
         337     338     339     340     341     342     343     344
         345     346     347     348     349     350     351     352
         353     354     355     356     357     358     359     360
         361     362     363     364     365     366     367     368
         369     370     371     372     373     374     375     376
         377     378     379     380     381     382     383     384
         385     386     387     388     389     390     391     392
         393     394     395     396     397     398     399     400
$ ... 40 like lines cut
$ Deform Body Contact LBC set: Helicoidales_I_contact
BCBODY1  3               3D      DEFORM  7
BSURF    7       714     715     716     717     718     719     720
         721     722     723     724     725     726     727     728
         729     730     731     732     733     734     735     736
         737     738     739     740     741     742     743     744
         745     746     747     748     749     750     751     752
         753     754     755     756     757     758     759     760
         761     762     763     764     765     766     767     768
         769     770     771     772     773     774     775     776
         777     778     779     780     781     782     783     784
         785     786     787     788     789     790     791     792
         793     794     795     796     797     798     799     800
         801     802     803     804     805     806     807     808
         809     810     811     812     813     814     815     816
         817     818     819     820     821     822     823     824
         825     826     827     828     829     830     831     832
         833     834     835     836     837     838     839     840
         841     842     843     844     845     846     847     848
         849     850     851     852     853     854     855     856
         857     858     859     860     861     862     863     864
         865     866     867     868     869     870     871     872
         873     874     875     876     877     878     879     880
$ ... 40 like lines cut
$ Deform Body Contact LBC set: Verticales_contact
BCBODY1  4               3D      DEFORM  8
BSURF    8       1194    1195    1196    1197    1198    1199    1200
         1201    1202    1203    1204    1205    1206    1207    1208
         1209    1210    1211    1212    1213    1214    1215    1216
         1217    1218    1219    1220    1221    1222    1223    1224
         1225    1226    1227    1228    1229    1230    1231    1232
         1233    1234    1235    1236    1237    1238    1239    1240
         1241    1242    1243    1244    1245    1246    1247    1248
         1249    1250    1251    1252    1253    1254    1255    1256
         1257    1258    1259    1260    1261    1262    1263    1264
         1265    1266    1267    1268    1269    1270    1271    1272
         1273    1274    1275    1276    1277    1278    1279    1280
         1281    1282    1283    1284    1285    1286    1287    1288
         1289    1290    1291    1292    1293    1294    1295    1296
         1297    1298    1299    1300    1301    1302    1303    1304
         1305    1306    1307    1308    1309    1310    1311    1312
         1313    1314    1315    1316    1317    1318    1319    1320
         1321    1322    1323    1324    1325    1326    1327    1328
         1329    1330    1331    1332    1333    1334    1335    1336
         1337    1338    1339    1340    1341    1342    1343    1344
         1345    1346    1347    1348    1349    1350    1351    1352
         1353    1354    1355    1356    1357    1358    1359    1360
$ ... 23 like lines cut
BCHANGE  1       NODE    4               1       1       490     1
         2       491     1474    1
         3       1475    2458    1
         4       421     431     1       4       443     459     1
         4       478     490     2       4       196     491     295
         4       492     573     81      4       574     655     81
         4       656     737     81      4       738     819     81
         4       820     901     81      4       902     983     81
         4       984     1065    81      4       1066    1147    81
         4       1148    1229    81      4       1230    1311    81
         4       1312    1393    81      4       1394    1475    81
         4       1476    1557    81      4       1558    1639    81
         4       1640    1721    81      4       1722    1803    81
         4       1804    1885    81
$ Nodal Forces of Load Set : Fuerza
FORCE    1       3180    0       15.     0.      0.      -1.
$ Referenced Coordinate Frames
ENDDATA 0c5c59fe
