$ MSC.Nastran input file created on November  29, 2021 at 15:02:01 by
$ Patran 2021.1  (Student Edition)
$ Direct Text Input for Nastran System Cell Section
$ Direct Text Input for File Management Section
$ Direct Text Input for Executive Control
$ Linear Static Analysis, Database
SOL 101
CEND
$ Direct Text Input for Global Case Control Data
TITLE = MSC.Nastran job created on 29-Nov-21 at 12:33:23
ECHO = NONE
   BCONTACT = 0
SUBCASE 1
   SUBTITLE=Default
   NLSTEP = 1
   BCONTACT = 1
   SPC = 2
   LOAD = 2
   DISPLACEMENT(SORT1,REAL)=ALL
   SPCFORCES(SORT1,REAL)=ALL
   STRESS(SORT1,REAL,VONMISES,BILIN)=ALL
$ Direct Text Input for this Subcase
BEGIN BULK
$ Direct Text Input for Bulk Data
MDLPRM   HDF5    0       IGNSHBDN  1
PARAM   PRTMAXIM YES
BCPARA   0       NLGLUE  0
NLSTEP   1
BCTABL1  0       8001    8002    8003    8004    8005    8006    8007
         8008    8009    8010
BCONECT  8001    3001            1       1
BCONECT  8002    3002            2       1
BCONECT  8003    3003            3       1
BCONECT  8004    3004            4       1
BCONECT  8005    3005            2       2
BCONECT  8006    3006            3       2
BCONECT  8007    3007            4       2
BCONECT  8008    3008            3       3
BCONECT  8009    3009            4       3
BCONECT  8010    3010            4       4
BCONPRG  3001            ERROR   10.     IGLUE   4       ISEARCH 2
BCONPRG  3002            ERROR   10.     IGLUE   4       ISEARCH 2
BCONPRG  3003            ERROR   10.     IGLUE   4       ISEARCH 2
BCONPRG  3004            ERROR   10.     IGLUE   4       ISEARCH 2
BCONPRG  3005            ERROR   10.     IGLUE   4       ISEARCH 2
BCONPRG  3006            ERROR   10.     IGLUE   4       ISEARCH 2
BCONPRG  3007            ERROR   10.     IGLUE   4       ISEARCH 2
BCONPRG  3008            ERROR   10.     IGLUE   4       ISEARCH 2
BCONPRG  3009            ERROR   10.     IGLUE   4       ISEARCH 2
BCONPRG  3010            ERROR   10.     IGLUE   4       ISEARCH 2
BCTABL1  1       8001    8002    8003    8004    8005    8006    8007
         8008    8009    8010
$ Elements and Element Properties for region : Shell_anillos
$ Composite Property Reference Material: Laminado_anillos
$ Composite Material Description :
PCOMP    1                       .089    HILL
         1       .183    0.      YES     1       .183    0.      YES
         1       .183    0.      YES     1       .183    0.      YES
         1       .183    0.      YES     1       .183    0.      YES
         1       .183    0.      YES     1       .183    0.      YES
         1       .183    0.      YES     1       .183    0.      YES
$ Pset: "Shell_anillos" will be imported as: "pcomp.1"
CQUAD4   101     1       122     123     174     173
CQUAD4   102     1       123     124     175     174
CQUAD4   103     1       124     125     176     175
CQUAD4   104     1       125     126     177     176
CQUAD4   105     1       126     127     178     177
CQUAD4   106     1       127     128     179     178
CQUAD4   107     1       128     129     180     179
CQUAD4   108     1       129     130     181     180
CQUAD4   109     1       130     131     182     181
CQUAD4   110     1       131     132     183     182
CQUAD4   111     1       132     133     184     183
CQUAD4   112     1       133     134     185     184
CQUAD4   113     1       134     135     186     185
CQUAD4   114     1       135     136     187     186
CQUAD4   115     1       136     137     188     187
CQUAD4   116     1       137     138     189     188
CQUAD4   117     1       138     139     190     189
CQUAD4   118     1       139     140     191     190
CQUAD4   119     1       140     141     192     191
CQUAD4   120     1       141     142     193     192
$ ... 5 like lines cut
CTRIA3   126     1       147     199     198
CQUAD4   127     1       147     148     200     199
CQUAD4   128     1       148     149     201     200
CQUAD4   129     1       149     150     202     201
CQUAD4   130     1       150     151     203     202
CQUAD4   131     1       151     152     204     203
CQUAD4   132     1       152     153     205     204
CQUAD4   133     1       153     154     206     205
CQUAD4   134     1       154     155     207     206
CQUAD4   135     1       155     156     208     207
CQUAD4   136     1       156     157     209     208
CQUAD4   137     1       157     158     210     209
CQUAD4   138     1       158     159     211     210
CQUAD4   139     1       159     160     212     211
CQUAD4   140     1       160     161     213     212
CQUAD4   141     1       161     162     214     213
CQUAD4   142     1       162     163     215     214
CQUAD4   143     1       163     164     216     215
CQUAD4   144     1       164     165     217     216
CQUAD4   145     1       165     166     218     217
CQUAD4   146     1       166     167     219     218
$ ... 44 like lines cut
CTRIA3   191     1       264     344     343
CQUAD4   192     1       264     265     345     344
CQUAD4   193     1       265     266     346     345
CQUAD4   194     1       266     267     347     346
CQUAD4   195     1       267     268     348     347
CQUAD4   196     1       268     269     349     348
CQUAD4   197     1       269     270     350     349
CQUAD4   198     1       270     271     351     350
CQUAD4   199     1       271     272     352     351
CQUAD4   200     1       272     273     353     352
CQUAD4   201     1       273     274     354     353
CQUAD4   202     1       274     275     355     354
CQUAD4   203     1       275     276     356     355
CQUAD4   204     1       276     277     357     356
CQUAD4   205     1       277     278     358     357
CQUAD4   206     1       278     279     359     358
CQUAD4   207     1       279     280     360     359
CQUAD4   208     1       280     281     361     360
CQUAD4   209     1       281     282     362     361
CQUAD4   210     1       282     283     363     362
CQUAD4   211     1       283     284     364     363
$ ... 32 like lines cut
CTRIA3   244     1       410     412     411
CQUAD4   245     1       412     414     413     411
CQUAD4   246     1       414     416     415     413
CQUAD4   247     1       416     418     417     415
CQUAD4   248     1       418     420     419     417
CQUAD4   249     1       420     422     421     419
CQUAD4   250     1       422     424     423     421
CQUAD4   251     1       424     426     425     423
CQUAD4   252     1       426     428     427     425
CQUAD4   253     1       428     430     429     427
CQUAD4   254     1       430     432     431     429
CQUAD4   255     1       432     434     433     431
CQUAD4   256     1       434     436     435     433
CQUAD4   257     1       436     438     437     435
CQUAD4   258     1       438     224     172     437
CQUAD4   259     1       441     442     463     462
CQUAD4   260     1       442     443     464     463
CQUAD4   261     1       443     444     465     464
CQUAD4   262     1       444     445     466     465
CQUAD4   263     1       445     446     467     466
CQUAD4   264     1       446     447     468     467
$ ... 4 like lines cut
CTRIA3   269     1       451     473     472
CQUAD4   270     1       451     452     474     473
CQUAD4   271     1       452     453     475     474
CQUAD4   272     1       453     454     476     475
CQUAD4   273     1       454     455     477     476
CQUAD4   274     1       455     456     478     477
CQUAD4   275     1       456     457     479     478
CQUAD4   276     1       457     458     480     479
CQUAD4   277     1       458     459     481     480
CQUAD4   278     1       459     460     482     481
CQUAD4   279     1       460     461     483     482
CQUAD4   280     1       484     485     517     516
CQUAD4   281     1       485     486     518     517
CQUAD4   282     1       486     487     519     518
CQUAD4   283     1       487     488     520     519
CQUAD4   284     1       488     489     521     520
CQUAD4   285     1       489     490     522     521
CQUAD4   286     1       490     491     523     522
CQUAD4   287     1       491     492     524     523
CQUAD4   288     1       492     493     525     524
CQUAD4   289     1       493     494     526     525
$ ... 5 like lines cut
CTRIA3   295     1       499     532     531
CQUAD4   296     1       499     500     533     532
CQUAD4   297     1       500     501     534     533
CQUAD4   298     1       501     502     535     534
CQUAD4   299     1       502     503     536     535
CQUAD4   300     1       503     504     537     536
CQUAD4   301     1       504     505     538     537
CQUAD4   302     1       505     506     539     538
CQUAD4   303     1       506     507     540     539
CQUAD4   304     1       507     508     541     540
CQUAD4   305     1       508     509     542     541
CQUAD4   306     1       509     510     543     542
CQUAD4   307     1       510     511     544     543
CQUAD4   308     1       511     512     545     544
CQUAD4   309     1       512     513     546     545
CQUAD4   310     1       513     514     547     546
CQUAD4   311     1       514     515     462     547
CQUAD4   312     1       516     552     551     550
CQUAD4   313     1       552     553     554     551
CQUAD4   314     1       553     555     557     554
CQUAD4   315     1       555     556     559     557
$ ... 210 like lines cut
CTRIA3   2730    1       5452    5510    5509
CQUAD4   2731    1       5452    5453    5511    5510
CQUAD4   2732    1       5453    5454    5512    5511
CQUAD4   2733    1       5454    5455    5513    5512
CQUAD4   2734    1       5455    5456    5514    5513
CQUAD4   2735    1       5456    5457    5515    5514
CQUAD4   2736    1       5457    5458    5516    5515
CQUAD4   2737    1       5458    5459    5517    5516
CQUAD4   2738    1       5459    5460    5518    5517
CQUAD4   2739    1       5460    5461    5519    5518
CQUAD4   2740    1       5461    5462    5520    5519
CQUAD4   2741    1       5462    5463    5521    5520
CQUAD4   2742    1       5463    5464    5522    5521
CQUAD4   2743    1       5464    5465    5523    5522
CQUAD4   2744    1       5465    5466    5524    5523
CQUAD4   2745    1       5466    5467    5525    5524
CQUAD4   2746    1       5467    5468    5526    5525
CQUAD4   2747    1       5468    5469    5527    5526
CQUAD4   2748    1       5469    5470    5528    5527
CQUAD4   2749    1       5470    5471    5529    5528
CQUAD4   2750    1       5471    5472    5530    5529
$ ... 41 like lines cut
CTRIA3   2792    1       5594    5622    5621
CQUAD4   2793    1       5594    5595    5623    5622
CQUAD4   2794    1       5595    5596    5624    5623
CQUAD4   2795    1       5596    5597    5625    5624
CQUAD4   2796    1       5597    5598    5626    5625
CQUAD4   2797    1       5598    5599    5627    5626
CQUAD4   2798    1       5599    5600    5628    5627
CQUAD4   2799    1       5600    5601    5629    5628
CQUAD4   2800    1       5601    5602    5630    5629
CQUAD4   2801    1       5602    5603    5631    5630
CQUAD4   2802    1       5603    5604    5632    5631
CQUAD4   2803    1       5604    5605    5633    5632
CQUAD4   2804    1       5605    5606    5634    5633
CQUAD4   2805    1       5606    5607    5635    5634
CQUAD4   2806    1       5636    5638    5639    5637
CQUAD4   2807    1       5638    5640    5641    5639
CQUAD4   2808    1       5640    5642    5643    5641
CQUAD4   2809    1       5642    5643    5645    5644
CQUAD4   2810    1       5644    5645    5647    5646
CQUAD4   2811    1       5646    5647    5649    5648
CQUAD4   2812    1       5648    5649    5651    5650
CTRIA3   2813    1       5650    5651    5652
CQUAD4   2814    1       5652    5651    5653    5654
CQUAD4   2815    1       5654    5653    5655    5656
CQUAD4   2816    1       5656    5655    5657    5658
CQUAD4   2817    1       5658    5657    5659    5660
CQUAD4   2818    1       5660    5662    5661    5659
CQUAD4   2819    1       5662    5664    5663    5661
CQUAD4   2820    1       5664    5635    5607    5663
CQUAD4   2821    1       5637    5668    5710    5636
CQUAD4   2822    1       5668    5669    5711    5710
CQUAD4   2823    1       5669    5670    5712    5711
CQUAD4   2824    1       5670    5671    5713    5712
CQUAD4   2825    1       5671    5672    5714    5713
CQUAD4   2826    1       5672    5673    5715    5714
CQUAD4   2827    1       5673    5674    5716    5715
CQUAD4   2828    1       5674    5675    5717    5716
CQUAD4   2829    1       5675    5676    5718    5717
CQUAD4   2830    1       5676    5677    5719    5718
CQUAD4   2831    1       5677    5678    5720    5719
CQUAD4   2832    1       5678    5679    5721    5720
CQUAD4   2833    1       5679    5680    5722    5721
$ ... 7 like lines cut
CTRIA3   2841    1       5687    5730    5729
CQUAD4   2842    1       5687    5688    5731    5730
CQUAD4   2843    1       5688    5689    5732    5731
CQUAD4   2844    1       5689    5690    5733    5732
CQUAD4   2845    1       5690    5691    5734    5733
CQUAD4   2846    1       5691    5692    5735    5734
CQUAD4   2847    1       5692    5693    5736    5735
CQUAD4   2848    1       5693    5694    5737    5736
CQUAD4   2849    1       5694    5695    5738    5737
CQUAD4   2850    1       5695    5696    5739    5738
CQUAD4   2851    1       5696    5697    5740    5739
CQUAD4   2852    1       5697    5698    5741    5740
CQUAD4   2853    1       5698    5699    5742    5741
CQUAD4   2854    1       5699    5700    5743    5742
CQUAD4   2855    1       5700    5701    5744    5743
CQUAD4   2856    1       5701    5702    5745    5744
CQUAD4   2857    1       5702    5703    5746    5745
CQUAD4   2858    1       5703    5704    5747    5746
CQUAD4   2859    1       5704    5705    5748    5747
CQUAD4   2860    1       5705    5706    5749    5748
CQUAD4   2861    1       5706    5707    5750    5749
CQUAD4   2862    1       5707    5581    5608    5750
$ Elements and Element Properties for region : Shell_helicoidales
$ Composite Property Reference Material: Laminado_rigidizadores_helicoid
$ Composite Material Description :
PCOMP    2                       .089    HILL
         2       .183    90.     YES     2       .183    90.     YES
         2       .183    90.     YES     2       .183    90.     YES
         2       .183    90.     YES     2       .183    90.     YES
         2       .183    90.     YES     2       .183    90.     YES
         2       .183    90.     YES     2       .183    90.     YES
$ Pset: "Shell_helicoidales" will be imported as: "pcomp.2"
CQUAD4   575     2       1094    1095    1097    1096
CQUAD4   576     2       1096    1097    1099    1098
CQUAD4   577     2       1098    1099    1101    1100
CQUAD4   578     2       1100    1101    1103    1102
CQUAD4   579     2       1102    1103    1105    1104
CQUAD4   580     2       1104    1105    1107    1106
CQUAD4   581     2       1106    1107    1109    1108
CQUAD4   582     2       1108    1109    1111    1110
CQUAD4   583     2       1110    1111    1113    1112
CQUAD4   584     2       1112    1113    1115    1114
CQUAD4   585     2       1114    1115    1117    1116
CQUAD4   586     2       1116    1117    1119    1118
CQUAD4   587     2       1118    1119    1121    1120
CQUAD4   588     2       1120    1121    1123    1122
CQUAD4   589     2       1122    1123    1125    1124
CQUAD4   590     2       1124    1125    1127    1126
CQUAD4   591     2       1126    1127    1129    1128
CQUAD4   592     2       1128    1129    1131    1130
CQUAD4   593     2       1130    1131    1133    1132
CQUAD4   594     2       1132    1133    1135    1134
$ ... 1004 like lines cut
$ Elements and Element Properties for region : Shell_verticales
$ Composite Property Reference Material: Laminado_rigidizadores_vertical
$ Composite Material Description :
PCOMP    3                       .089    HILL
         2       .183    90.     YES     2       .183    90.     YES
         2       .183    90.     YES     2       .183    90.     YES
         2       .183    90.     YES     2       .183    90.     YES
         2       .183    90.     YES     2       .183    90.     YES
         2       .183    90.     YES     2       .183    90.     YES
$ Pset: "Shell_verticales" will be imported as: "pcomp.3"
CQUAD4   1599    3       3174    3175    3177    3176
CQUAD4   1600    3       3176    3177    3179    3178
CQUAD4   1601    3       3178    3179    3181    3180
CQUAD4   1602    3       3180    3181    3183    3182
CQUAD4   1603    3       3182    3183    3185    3184
CQUAD4   1604    3       3184    3185    3187    3186
CQUAD4   1605    3       3186    3187    3189    3188
CQUAD4   1606    3       3188    3189    3191    3190
CQUAD4   1607    3       3190    3191    3193    3192
CQUAD4   1608    3       3192    3193    3195    3194
CQUAD4   1609    3       3194    3195    3197    3196
CQUAD4   1610    3       3196    3197    3199    3198
CQUAD4   1611    3       3198    3199    3201    3200
CQUAD4   1612    3       3200    3201    3203    3202
CQUAD4   1613    3       3202    3203    3205    3204
CQUAD4   1614    3       3204    3205    3207    3206
CQUAD4   1615    3       3206    3207    3209    3208
CQUAD4   1616    3       3208    3209    3211    3210
CQUAD4   1617    3       3210    3211    3213    3212
CQUAD4   1618    3       3212    3213    3215    3214
$ ... 908 like lines cut
$ Referenced Material Records
$ Material Record : Anillos
$ Description of Material : Date: 24-Nov-21           Time: 11:45:07
MAT8*    1               158.489         8.9490004       .315611
*        4.6490002       4.6490002       4.6490002       1.58
                                 2.233   1.418   .051    .255    .089
$ Material Record : Rigidizadores
$ Description of Material : Date: 24-Nov-21           Time: 11:45:07
MAT8*    2               140.93201       9.712           .356
*        4.6499991       4.6499991       4.6499991       1.58
                                 2.233   1.418   .051    .255    .089
$ Multipoint Constraints of the Entire Model
RBE2     1       574     3       441     442     443     444     445
         446     447     448     449     450     451     452     453
         454     455     456     457     458     459     460     461
         484     485     486     487     488     489     490     491
         492     493     494     495     496     497     498     499
         500     501     502     503     504     505     506     507
         508     509     510     511     512     513     514     515
         550     551     554     557     559     561     563     565
         566     568     570     572
$ Nodes of the Entire Model
GRID*    122                            -123.79306793213-5.27635129401-5
*        4.50634765625
GRID*    123                            -123.690612792975.03539705276489
*        4.50634765625
GRID*    124                            -123.3833618164110.0631113052368
*        4.50634765625
GRID*    125                            -122.8719482421915.0732383728027
*        4.50634765625
GRID*    126                            -122.15705871582 20.059139251709
*        4.50634765625
GRID*    127                            -121.23993682861 25.011833190918
*        4.50634765625
GRID*    128                            -120.1222763061529.9224052429199
*        4.50634765625
GRID*    129                            -118.8055496215834.7843551635742
*        4.50634765625
GRID*    130                            -117.2923202514639.5881385803223
*        4.50634765625
GRID*    131                            -115.5849380493244.3264007568359
*        4.50634765625
GRID*    132                            -113.6859970092848.9918365478516
*        4.50634765625
GRID*    133                            -111.5992279052753.5753326416016
*        4.50634765625
GRID*    134                             -109.327430725158.0707817077637
*        4.50634765625
GRID*    135                            -106.8746261596762.4701194763184
*        4.50634765625
GRID*    136                            -104.2452926635766.7654037475586
*        4.50634765625
GRID*    137                            -101.4428939819370.9509582519531
*        4.50634765625
GRID*    138                             -98.4729080200275.0185623168945
*        4.50634765625
GRID*    139                             -95.3399276733478.9619903564453
*        4.50634765625
GRID*    140                            -92.04872131347782.7751770019531
*        4.50634765625
GRID*    141                            -88.60577392578186.4506378173828
*        4.50634765625
$ ... 844 like lines cut
GRID     574             0.      0.      400.
GRID*    1094                           -21.130908966064-45.315380096436
*        280.
GRID*    1095                           -18.375175476074-46.501094818115
*        280.
GRID*    1096                           -21.677419662476-46.479137420654
*       275.200103759766
GRID*    1097                            -18.92392539978-47.669864654541
*       275.188812255859
GRID*    1098                           -22.217916488647-47.645713806152
*       270.400146484375
GRID*    1099                           -19.466474533081-48.841007232666
*       270.377502441406
GRID*    1100                           -22.756677627563-48.813091278076
*       265.600219726563
GRID*    1101                           -20.007244110107-50.012752532959
*       265.566223144531
GRID*    1102                           -23.302448272705-49.977264404297
*       260.800079345703
GRID*    1103                           -20.555250167847-51.181579589844
*       260.754669189453
GRID*    1104                           -23.867414474487-51.132423400879
*       256.000122070313
GRID*    1105                            -21.12296295166-52.342208862305
*       255.943634033203
GRID*    1106                           -24.463579177856-52.272880554199
*        251.20051574707
GRID*    1107                           -21.722658157349-53.489471435547
*       251.133361816406
GRID*    1108                           -25.101898193359-53.393356323242
*       246.401336669922
GRID*    1109                           -22.365503311157-54.618522644043
*        246.32405090332
GRID*    1110                           -25.792097091675-54.488792419434
*       241.603240966797
GRID*    1111                           -23.061408996582-55.724628448486
*       241.516494750977
GRID*    1112                           -26.542387008667-55.554260253906
*       236.808029174805
GRID*    1113                           -23.818733215332-56.803104400635
*       236.712524414063
$ ... 9232 like lines cut
$ Loads for Load Case : Default
SPCADD   2       1       3
LOAD     2       1.      1.      1
$ Displacement Constraints of Load Set : Mesa
SPC1     1       3       173     THRU    224
SPC1     1       3       304     THRU    382
SPC1     1       3       386     388     390     392     394     396
         398     400     402     404     406     408     410     412
         414     416     418     420     422     424     426     428
         430     432     434     436     438
$ Displacement Constraints of Load Set : Empotre
SPC1     3       123456  344
$ Deform Body Contact LBC set: anillos_def
BCBODY1  1               3D      DEFORM  15
BSURF    15      101     102     103     104     105     106     107
         108     109     110     111     112     113     114     115
         116     117     118     119     120     121     122     123
         124     125     126     127     128     129     130     131
         132     133     134     135     136     137     138     139
         140     141     142     143     144     145     146     147
         148     149     150     151     152     153     154     155
         156     157     158     159     160     161     162     163
         164     165     166     167     168     169     170     171
         172     173     174     175     176     177     178     179
         180     181     182     183     184     185     186     187
         188     189     190     191     192     193     194     195
         196     197     198     199     200     201     202     203
         204     205     206     207     208     209     210     211
         212     213     214     215     216     217     218     219
         220     221     222     223     224     225     226     227
         228     229     230     231     232     233     234     235
         236     237     238     239     240     241     242     243
         244     245     246     247     248     249     250     251
         252     253     254     255     256     257     258     259
         260     261     262     263     264     265     266     267
$ ... 49 like lines cut
$ Deform Body Contact LBC set: helicoidalesD_def
BCBODY1  2       5002    3D      DEFORM  11
BCBDPRP  5002            FRIC    .1
BSURF    11      575     576     577     578     579     580     581
         582     583     584     585     586     587     588     589
         590     591     592     593     594     595     596     597
         598     599     600     601     602     603     604     605
         606     607     608     609     610     611     612     613
         614     615     616     617     618     619     620     621
         622     623     624     625     626     627     628     629
         630     631     632     633     634     635     636     637
         638     639     640     641     642     643     644     645
         646     647     648     649     650     651     652     653
         654     655     656     657     658     659     660     661
         662     663     664     665     666     667     668     669
         670     671     672     673     674     675     676     677
         678     679     680     681     682     683     684     685
         686     687     688     689     690     691     692     693
         694     695     696     697     698     699     700     701
         702     703     704     705     706     707     708     709
         710     711     712     713     714     715     716     717
         718     719     720     721     722     723     724     725
         726     727     728     729     730     731     732     733
         734     735     736     737     738     739     740     741
$ ... 44 like lines cut
$ Deform Body Contact LBC set: helicoidalesI_def
BCBODY1  3       5003    3D      DEFORM  12
BCBDPRP  5003            FRIC    .1
BSURF    12      1087    1088    1089    1090    1091    1092    1093
         1094    1095    1096    1097    1098    1099    1100    1101
         1102    1103    1104    1105    1106    1107    1108    1109
         1110    1111    1112    1113    1114    1115    1116    1117
         1118    1119    1120    1121    1122    1123    1124    1125
         1126    1127    1128    1129    1130    1131    1132    1133
         1134    1135    1136    1137    1138    1139    1140    1141
         1142    1143    1144    1145    1146    1147    1148    1149
         1150    1151    1152    1153    1154    1155    1156    1157
         1158    1159    1160    1161    1162    1163    1164    1165
         1166    1167    1168    1169    1170    1171    1172    1173
         1174    1175    1176    1177    1178    1179    1180    1181
         1182    1183    1184    1185    1186    1187    1188    1189
         1190    1191    1192    1193    1194    1195    1196    1197
         1198    1199    1200    1201    1202    1203    1204    1205
         1206    1207    1208    1209    1210    1211    1212    1213
         1214    1215    1216    1217    1218    1219    1220    1221
         1222    1223    1224    1225    1226    1227    1228    1229
         1230    1231    1232    1233    1234    1235    1236    1237
         1238    1239    1240    1241    1242    1243    1244    1245
         1246    1247    1248    1249    1250    1251    1252    1253
$ ... 44 like lines cut
$ Deform Body Contact LBC set: verticales_def
BCBODY1  4       5004    3D      DEFORM  13
BCBDPRP  5004            FRIC    .1
BSURF    13      1599    1600    1601    1602    1603    1604    1605
         1606    1607    1608    1609    1610    1611    1612    1613
         1614    1615    1616    1617    1618    1619    1620    1621
         1622    1623    1624    1625    1626    1627    1628    1629
         1630    1631    1632    1633    1634    1635    1636    1637
         1638    1639    1640    1641    1642    1643    1644    1645
         1646    1647    1648    1649    1650    1651    1652    1653
         1654    1655    1656    1657    1658    1659    1660    1661
         1662    1663    1664    1665    1666    1667    1668    1669
         1670    1671    1672    1673    1674    1675    1676    1677
         1678    1679    1680    1681    1682    1683    1684    1685
         1686    1687    1688    1689    1690    1691    1692    1693
         1694    1695    1696    1697    1698    1699    1700    1701
         1702    1703    1704    1705    1706    1707    1708    1709
         1710    1711    1712    1713    1714    1715    1716    1717
         1718    1719    1720    1721    1722    1723    1724    1725
         1726    1727    1728    1729    1730    1731    1732    1733
         1734    1735    1736    1737    1738    1739    1740    1741
         1742    1743    1744    1745    1746    1747    1748    1749
         1750    1751    1752    1753    1754    1755    1756    1757
         1758    1759    1760    1761    1762    1763    1764    1765
$ ... 96 like lines cut
$ Nodal Forces of Load Set : Fuerza
FORCE    1       574     0       15.     0.      0.      -1.
$ Referenced Coordinate Frames
ENDDATA 3e5ae147
