





                                  ****
                                *      *
                               *        *
                               *  N A S T R A N
                               *        *
                                *      *
                                  ****


                            INTEL COMPUTER SYSTEMS   
                                 LINUX VERSION 

                          SYSTEM RELEASE -  1995 ED.

                                DISTRIBUTED BY

         COMPUTER SOFTWARE MANAGEMENT AND INFORMATION CENTER (COSMIC)
                 UNIVERSITY OF GEORGIA, ATHENS, GEORGIA 30602
                 PHONE: (706)542-3265      FAX: (706)542-4807
1                                                                           /    95 INTEL LINUX NASTRAN    / NOV 29, 21 / PAGE     2
                                                                                                                                    
0                                                                                                                                   
                                                                                                         
                                                                                                         
                         INSTALLATION CENTER USER INFORMATION GIVEN IN THIS SECTION                      
                                                                                                         
                                     *********************************************                       
                                     *                                           *                       
                                     *  PLEASE READ THE COMMENT IN DEMO PROBLEM  *                       
                                     *  D01002A ABOUT SYSTEM TIMING CONSTANTS    *                       
                                     *                                           *                       
                                     *********************************************                       
                                                                                                         
                         ===X=    TOP OF PAGE REQUEST IF 'X' IS REPLACED BY '='                          
                                                                                                         
1                                                                           /    95 INTEL LINUX NASTRAN    / NOV 29, 21 / PAGE     3
                                                                                                                                    
0                                                                                                                                   
0*** USER INFORMATION MESSAGE 225, GINO TIME CONSTANTS ARE BEING COMPUTED
     (SEE NASINFO FILE FOR ELIMINATION OF THESE COMPUTATIONS)
1                                                                           /    95 INTEL LINUX NASTRAN    / NOV 29, 21 / PAGE     4
                                                                                                                                    
0        N A S T R A N    E X E C U T I V E    C O N T R O L    D E C K    E C H O                                                  
0                                                                                                                                   
                                                                                                                                    
                                                                                                                                    
     INCLUDE './cono.bdf'                                                            
0*** USER FATAL MESSAGE  505, CONTROL CARD INCLUDE  IS ILLEGAL
0*** USER FATAL MESSAGE  529, MISSING CEND CARD.
  ERRTRC CALLED
  NAME=WRTMSG  
  IVAL=         100




                                        * * * END OF JOB * * *
1
 JOB TITLE =                                                                     
 DATE: 11/29/21
 END TIME: 17:18:32
 TOTAL WALL CLOCK TIME      0 SEC.
 
