$ MSC.Nastran input file created on November  29, 2021 at 18:07:08 by
$ Patran 2021.1  (Student Edition)
$ Direct Text Input for Nastran System Cell Section
$ Direct Text Input for File Management Section
$ Direct Text Input for Executive Control
$ Linear Static Analysis, Database
SOL 101
CEND
$ Direct Text Input for Global Case Control Data
TITLE = MSC.Nastran job created on 29-Nov-21 at 17:40:06
ECHO = NONE
   BCONTACT = 0
SUBCASE 1
   SUBTITLE=Default
   NLSTEP = 1
   BCONTACT = 1
   SPC = 2
   LOAD = 2
   DISPLACEMENT(SORT1,REAL)=ALL
   SPCFORCES(SORT1,REAL)=ALL
   STRESS(SORT1,REAL,VONMISES,BILIN)=ALL
$ Direct Text Input for this Subcase
BEGIN BULK
$ Direct Text Input for Bulk Data
MDLPRM   HDF5    0
PARAM   PRTMAXIM YES
BCPARA   0       NLGLUE  0
NLSTEP   1
BCTABL1  0       8001    8002    8003    8004    8005    8006    8007
         8008    8009    8010
BCONECT  8001    3001            1       1
BCONECT  8002    3002            2       1
BCONECT  8003    3003            3       1
BCONECT  8004    3004            4       1
BCONECT  8005    3005            2       2
BCONECT  8006    3006            3       2
BCONECT  8007    3007            4       2
BCONECT  8008    3008            3       3
BCONECT  8009    3009            4       3
BCONECT  8010    3010            4       4
BCONPRG  3001            ERROR   10.     IGLUE   4       ISEARCH 1
BCONPRG  3002            ERROR   10.     IGLUE   4       ISEARCH 1
BCONPRG  3003            ERROR   10.     IGLUE   4       ISEARCH 1
BCONPRG  3004            ERROR   10.     IGLUE   4       ISEARCH 1
BCONPRG  3005            ERROR   10.     IGLUE   4       ISEARCH 1
BCONPRG  3006            ERROR   10.     IGLUE   4       ISEARCH 1
BCONPRG  3007            ERROR   10.     IGLUE   4       ISEARCH 1
BCONPRG  3008            ERROR   10.     IGLUE   4       ISEARCH 1
BCONPRG  3009            ERROR   10.     IGLUE   4       ISEARCH 1
BCONPRG  3010            ERROR   10.     IGLUE   4       ISEARCH 1
BCTABL1  1       8001    8002    8003    8004    8005    8006    8007
         8008    8009    8010
$ Elements and Element Properties for region : Shell_anillos
$ Composite Property Reference Material: Laminado_anillos
$ Composite Material Description :
PCOMP    1                       .089    HILL
         1       .183    0.      YES     1       .183    0.      YES
         1       .183    0.      YES     1       .183    0.      YES
         1       .183    0.      YES     1       .183    0.      YES
         1       .183    0.      YES     1       .183    0.      YES
         1       .183    0.      YES     1       .183    0.      YES
$ Pset: "Shell_anillos" will be imported as: "pcomp.1"
CQUAD4   101     1       122     123     174     173
CQUAD4   102     1       123     124     175     174
CQUAD4   103     1       124     125     176     175
CQUAD4   104     1       125     126     177     176
CQUAD4   105     1       126     127     178     177
CQUAD4   106     1       127     128     179     178
CQUAD4   107     1       128     129     180     179
CQUAD4   108     1       129     130     181     180
CQUAD4   109     1       130     131     182     181
CQUAD4   110     1       131     132     183     182
CQUAD4   111     1       132     133     184     183
CQUAD4   112     1       133     134     185     184
CQUAD4   113     1       134     135     186     185
CQUAD4   114     1       135     136     187     186
CQUAD4   115     1       136     137     188     187
CQUAD4   116     1       137     138     189     188
CQUAD4   117     1       138     139     190     189
CQUAD4   118     1       139     140     191     190
CQUAD4   119     1       140     141     192     191
CQUAD4   120     1       141     142     193     192
$ ... 5 like lines cut
CTRIA3   126     1       147     199     198
CQUAD4   127     1       147     148     200     199
CQUAD4   128     1       148     149     201     200
CQUAD4   129     1       149     150     202     201
CQUAD4   130     1       150     151     203     202
CQUAD4   131     1       151     152     204     203
CQUAD4   132     1       152     153     205     204
CQUAD4   133     1       153     154     206     205
CQUAD4   134     1       154     155     207     206
CQUAD4   135     1       155     156     208     207
CQUAD4   136     1       156     157     209     208
CQUAD4   137     1       157     158     210     209
CQUAD4   138     1       158     159     211     210
CQUAD4   139     1       159     160     212     211
CQUAD4   140     1       160     161     213     212
CQUAD4   141     1       161     162     214     213
CQUAD4   142     1       162     163     215     214
CQUAD4   143     1       163     164     216     215
CQUAD4   144     1       164     165     217     216
CQUAD4   145     1       165     166     218     217
CQUAD4   146     1       166     167     219     218
$ ... 44 like lines cut
CTRIA3   191     1       264     344     343
CQUAD4   192     1       264     265     345     344
CQUAD4   193     1       265     266     346     345
CQUAD4   194     1       266     267     347     346
CQUAD4   195     1       267     268     348     347
CQUAD4   196     1       268     269     349     348
CQUAD4   197     1       269     270     350     349
CQUAD4   198     1       270     271     351     350
CQUAD4   199     1       271     272     352     351
CQUAD4   200     1       272     273     353     352
CQUAD4   201     1       273     274     354     353
CQUAD4   202     1       274     275     355     354
CQUAD4   203     1       275     276     356     355
CQUAD4   204     1       276     277     357     356
CQUAD4   205     1       277     278     358     357
CQUAD4   206     1       278     279     359     358
CQUAD4   207     1       279     280     360     359
CQUAD4   208     1       280     281     361     360
CQUAD4   209     1       281     282     362     361
CQUAD4   210     1       282     283     363     362
CQUAD4   211     1       283     284     364     363
$ ... 32 like lines cut
CTRIA3   244     1       410     412     411
CQUAD4   245     1       412     414     413     411
CQUAD4   246     1       414     416     415     413
CQUAD4   247     1       416     418     417     415
CQUAD4   248     1       418     420     419     417
CQUAD4   249     1       420     422     421     419
CQUAD4   250     1       422     424     423     421
CQUAD4   251     1       424     426     425     423
CQUAD4   252     1       426     428     427     425
CQUAD4   253     1       428     430     429     427
CQUAD4   254     1       430     432     431     429
CQUAD4   255     1       432     434     433     431
CQUAD4   256     1       434     436     435     433
CQUAD4   257     1       436     438     437     435
CQUAD4   258     1       438     224     172     437
CQUAD4   259     1       441     442     463     462
CQUAD4   260     1       442     443     464     463
CQUAD4   261     1       443     444     465     464
CQUAD4   262     1       444     445     466     465
CQUAD4   263     1       445     446     467     466
CQUAD4   264     1       446     447     468     467
$ ... 4 like lines cut
CTRIA3   269     1       451     473     472
CQUAD4   270     1       451     452     474     473
CQUAD4   271     1       452     453     475     474
CQUAD4   272     1       453     454     476     475
CQUAD4   273     1       454     455     477     476
CQUAD4   274     1       455     456     478     477
CQUAD4   275     1       456     457     479     478
CQUAD4   276     1       457     458     480     479
CQUAD4   277     1       458     459     481     480
CQUAD4   278     1       459     460     482     481
CQUAD4   279     1       460     461     483     482
CQUAD4   280     1       484     485     517     516
CQUAD4   281     1       485     486     518     517
CQUAD4   282     1       486     487     519     518
CQUAD4   283     1       487     488     520     519
CQUAD4   284     1       488     489     521     520
CQUAD4   285     1       489     490     522     521
CQUAD4   286     1       490     491     523     522
CQUAD4   287     1       491     492     524     523
CQUAD4   288     1       492     493     525     524
CQUAD4   289     1       493     494     526     525
$ ... 5 like lines cut
CTRIA3   295     1       499     532     531
CQUAD4   296     1       499     500     533     532
CQUAD4   297     1       500     501     534     533
CQUAD4   298     1       501     502     535     534
CQUAD4   299     1       502     503     536     535
CQUAD4   300     1       503     504     537     536
CQUAD4   301     1       504     505     538     537
CQUAD4   302     1       505     506     539     538
CQUAD4   303     1       506     507     540     539
CQUAD4   304     1       507     508     541     540
CQUAD4   305     1       508     509     542     541
CQUAD4   306     1       509     510     543     542
CQUAD4   307     1       510     511     544     543
CQUAD4   308     1       511     512     545     544
CQUAD4   309     1       512     513     546     545
CQUAD4   310     1       513     514     547     546
CQUAD4   311     1       514     515     462     547
CQUAD4   312     1       516     552     551     550
CQUAD4   313     1       552     553     554     551
CQUAD4   314     1       553     555     557     554
CQUAD4   315     1       555     556     559     557
$ ... 210 like lines cut
CTRIA3   526     1       965     1023    1022
CQUAD4   527     1       965     966     1024    1023
CQUAD4   528     1       966     967     1025    1024
CQUAD4   529     1       967     968     1026    1025
CQUAD4   530     1       968     969     1027    1026
CQUAD4   531     1       969     970     1028    1027
CQUAD4   532     1       970     971     1029    1028
CQUAD4   533     1       971     972     1030    1029
CQUAD4   534     1       972     973     1031    1030
CQUAD4   535     1       973     974     1032    1031
CQUAD4   536     1       974     975     1033    1032
CQUAD4   537     1       975     976     1034    1033
CQUAD4   538     1       976     977     1035    1034
CQUAD4   539     1       977     978     1036    1035
CQUAD4   540     1       978     979     1037    1036
CQUAD4   541     1       979     980     1038    1037
CQUAD4   542     1       980     981     1039    1038
CQUAD4   543     1       981     982     1040    1039
CQUAD4   544     1       982     983     1041    1040
CQUAD4   545     1       983     984     1042    1041
CQUAD4   546     1       984     985     1043    1042
$ ... 41 like lines cut
CTRIA3   588     1       1107    1135    1134
CQUAD4   589     1       1107    1108    1136    1135
CQUAD4   590     1       1108    1109    1137    1136
CQUAD4   591     1       1109    1110    1138    1137
CQUAD4   592     1       1110    1111    1139    1138
CQUAD4   593     1       1111    1112    1140    1139
CQUAD4   594     1       1112    1113    1141    1140
CQUAD4   595     1       1113    1114    1142    1141
CQUAD4   596     1       1114    1115    1143    1142
CQUAD4   597     1       1115    1116    1144    1143
CQUAD4   598     1       1116    1117    1145    1144
CQUAD4   599     1       1117    1118    1146    1145
CQUAD4   600     1       1118    1119    1147    1146
CQUAD4   601     1       1119    1120    1148    1147
CQUAD4   602     1       1149    1150    1166    1165
CQUAD4   603     1       1150    1151    1167    1166
CQUAD4   604     1       1151    1152    1168    1167
CQUAD4   605     1       1152    1153    1169    1168
CQUAD4   606     1       1153    1154    1170    1169
CQUAD4   607     1       1154    1155    1171    1170
CQUAD4   608     1       1155    1156    1172    1171
CTRIA3   609     1       1156    1157    1172
CQUAD4   610     1       1157    1158    1173    1172
CQUAD4   611     1       1158    1159    1174    1173
CQUAD4   612     1       1159    1160    1175    1174
CQUAD4   613     1       1160    1161    1176    1175
CQUAD4   614     1       1161    1162    1177    1176
CQUAD4   615     1       1162    1163    1178    1177
CQUAD4   616     1       1163    1148    1120    1178
CQUAD4   617     1       1165    1181    1223    1149
CQUAD4   618     1       1181    1182    1224    1223
CQUAD4   619     1       1182    1183    1225    1224
CQUAD4   620     1       1183    1184    1226    1225
CQUAD4   621     1       1184    1185    1227    1226
CQUAD4   622     1       1185    1186    1228    1227
CQUAD4   623     1       1186    1187    1229    1228
CQUAD4   624     1       1187    1188    1230    1229
CQUAD4   625     1       1188    1189    1231    1230
CQUAD4   626     1       1189    1190    1232    1231
CQUAD4   627     1       1190    1191    1233    1232
CQUAD4   628     1       1191    1192    1234    1233
CQUAD4   629     1       1192    1193    1235    1234
$ ... 7 like lines cut
CTRIA3   637     1       1200    1243    1242
CQUAD4   638     1       1200    1201    1244    1243
CQUAD4   639     1       1201    1202    1245    1244
CQUAD4   640     1       1202    1203    1246    1245
CQUAD4   641     1       1203    1204    1247    1246
CQUAD4   642     1       1204    1205    1248    1247
CQUAD4   643     1       1205    1206    1249    1248
CQUAD4   644     1       1206    1207    1250    1249
CQUAD4   645     1       1207    1208    1251    1250
CQUAD4   646     1       1208    1209    1252    1251
CQUAD4   647     1       1209    1210    1253    1252
CQUAD4   648     1       1210    1211    1254    1253
CQUAD4   649     1       1211    1212    1255    1254
CQUAD4   650     1       1212    1213    1256    1255
CQUAD4   651     1       1213    1214    1257    1256
CQUAD4   652     1       1214    1215    1258    1257
CQUAD4   653     1       1215    1216    1259    1258
CQUAD4   654     1       1216    1217    1260    1259
CQUAD4   655     1       1217    1218    1261    1260
CQUAD4   656     1       1218    1219    1262    1261
CQUAD4   657     1       1219    1220    1263    1262
CQUAD4   658     1       1220    1094    1121    1263
$ Elements and Element Properties for region : Shell_helicoidales
$ Composite Property Reference Material: Laminado_rigidizadores_helicoid
$ Composite Material Description :
PCOMP    2                       .089    HILL
         2       .183    90.     YES     2       .183    90.     YES
         2       .183    90.     YES     2       .183    90.     YES
         2       .183    90.     YES     2       .183    90.     YES
         2       .183    90.     YES     2       .183    90.     YES
         2       .183    90.     YES     2       .183    90.     YES
$ Pset: "Shell_helicoidales" will be imported as: "pcomp.2"
CQUAD4   659     2       504     1266    536     1267
CQUAD4   660     2       1267    536     1270    1269
CQUAD4   661     2       1269    1270    1272    1271
CQUAD4   662     2       1271    1272    1274    1273
CQUAD4   663     2       1273    1274    1276    1275
CQUAD4   664     2       1275    1276    1278    1277
CQUAD4   665     2       1277    1278    1280    1279
CQUAD4   666     2       1279    1280    1282    1281
CQUAD4   667     2       1281    1282    1284    1283
CQUAD4   668     2       1283    1284    1286    1285
CQUAD4   669     2       1285    1286    1288    1287
CQUAD4   670     2       1287    1288    1290    1289
CQUAD4   671     2       1289    1290    1292    1291
CQUAD4   672     2       1291    1292    1294    1293
CQUAD4   673     2       1293    1294    1296    1295
CQUAD4   674     2       1295    1296    1298    1297
CQUAD4   675     2       1297    1298    1300    1299
CQUAD4   676     2       1299    1300    1302    1301
CQUAD4   677     2       1301    1302    1304    1303
CQUAD4   678     2       1303    1304    1306    1305
$ ... 1004 like lines cut
$ Elements and Element Properties for region : Shell_verticales
$ Composite Property Reference Material: Laminado_rigidizadores_vertical
$ Composite Material Description :
PCOMP    3                       .089    HILL
         2       .183    90.     YES     2       .183    90.     YES
         2       .183    90.     YES     2       .183    90.     YES
         2       .183    90.     YES     2       .183    90.     YES
         2       .183    90.     YES     2       .183    90.     YES
         2       .183    90.     YES     2       .183    90.     YES
$ Pset: "Shell_verticales" will be imported as: "pcomp.3"
CQUAD4   1683    3       1914    2434    2431    1911
CQUAD4   1684    3       1911    2431    3350    3349
CQUAD4   1685    3       3349    3350    3352    3351
CQUAD4   1686    3       3351    3352    3354    3353
CQUAD4   1687    3       3353    3354    3356    3355
CQUAD4   1688    3       3355    3356    3358    3357
CQUAD4   1689    3       3357    3358    3360    3359
CQUAD4   1690    3       3359    3360    3362    3361
CQUAD4   1691    3       3361    3362    3364    3363
CQUAD4   1692    3       3363    3364    3366    3365
CQUAD4   1693    3       3365    3366    3368    3367
CQUAD4   1694    3       3367    3368    3370    3369
CQUAD4   1695    3       3369    3370    3372    3371
CQUAD4   1696    3       3371    3372    3374    3373
CQUAD4   1697    3       3373    3374    3376    3375
CQUAD4   1698    3       3375    3376    3378    3377
CQUAD4   1699    3       3377    3378    3380    3379
CQUAD4   1700    3       3379    3380    3382    3381
CQUAD4   1701    3       3381    3382    3384    3383
CQUAD4   1702    3       3383    3384    3386    3385
$ ... 908 like lines cut
$ Referenced Material Records
$ Material Record : Anillos
$ Description of Material : Date: 24-Nov-21           Time: 11:45:07
MAT8*    1               158.489         8.9490004       .315611
*        4.6490002       4.6490002       4.6490002       1.58
                                 2.233   1.418   .051    .255    .089
$ Material Record : Rigidizadores
$ Description of Material : Date: 24-Nov-21           Time: 11:45:07
MAT8*    2               140.93201       9.712           .356
*        4.6499991       4.6499991       4.6499991       1.58
                                 2.233   1.418   .051    .255    .089
$ Multipoint Constraints of the Entire Model
RBE2     1       574     3       441     442     443     444     445
         446     447     448     449     450     451     452     453
         454     455     456     457     458     459     460     461
         484     485     486     487     488     489     490     491
         492     493     494     495     496     497     498     499
         500     501     502     503     504     505     506     507
         508     509     510     511     512     513     514     515
         550     551     554     557     559     561     563     565
         566     568     570     572
$ Nodes of the Entire Model
GRID*    122                            -123.79306793213-5.27635129401-5
*        4.50634765625
GRID*    123                            -123.690612792975.03539705276489
*        4.50634765625
GRID*    124                            -123.3833618164110.0631113052368
*        4.50634765625
GRID*    125                            -122.8719482421915.0732383728027
*        4.50634765625
GRID*    126                            -122.15705871582 20.059139251709
*        4.50634765625
GRID*    127                            -121.23993682861 25.011833190918
*        4.50634765625
GRID*    128                            -120.1222763061529.9224052429199
*        4.50634765625
GRID*    129                            -118.8055496215834.7843551635742
*        4.50634765625
GRID*    130                            -117.2923202514639.5881385803223
*        4.50634765625
GRID*    131                            -115.5849380493244.3264007568359
*        4.50634765625
GRID*    132                            -113.6859970092848.9918365478516
*        4.50634765625
GRID*    133                            -111.5992279052753.5753326416016
*        4.50634765625
GRID*    134                             -109.327430725158.0707817077637
*        4.50634765625
GRID*    135                            -106.8746261596762.4701194763184
*        4.50634765625
GRID*    136                            -104.2452926635766.7654037475586
*        4.50634765625
GRID*    137                            -101.4428939819370.9509582519531
*        4.50634765625
GRID*    138                             -98.4729080200275.0185623168945
*        4.50634765625
GRID*    139                             -95.3399276733478.9619903564453
*        4.50634765625
GRID*    140                            -92.04872131347782.7751770019531
*        4.50634765625
GRID*    141                            -88.60577392578186.4506378173828
*        4.50634765625
$ ... 844 like lines cut
GRID     574             0.      0.      400.
GRID*    575                             48.18254470825296.3450546264648
*       64.5063095092773
GRID*    576                            48.174545288085996.3490524291992
*       64.5063095092773
GRID*    577                            48.714336395263797.4286727905273
*        60.
GRID*    578                            48.7062301635742 97.432731628418
*        60.
GRID*    580                            44.1511383056641 99.579727172852
*        60.
GRID*    581                            39.5012245178223101.514129638672
*        60.
GRID*    582                            34.7670555114746103.231452941895
*        60.
GRID*    583                            29.9590873718262104.727920532227
*        60.
GRID*    584                            25.0865039825439 106.00065612793
*        60.
GRID*    585                            20.1601486206055107.046798706055
*        60.
GRID*    586                            15.1912689208984107.863998413086
*        60.
GRID*    587                            10.1897897720337108.450691223145
*        60.
GRID*    588                            5.16606950759888108.805641174316
*        60.
GRID*    589                            .131585717201233108.928047180176
*        60.
GRID*    590                            -4.9027585983276 108.81770324707
*        60.
GRID*    591                             -9.927107810974108.474822998047
*        60.
GRID*    592                            -14.930372238159107.900131225586
*        60.
GRID*    593                             -19.90110206604107.094947814941
*        60.
GRID*    594                            -24.829654693604106.060844421387
*        60.
GRID*    595                            -29.705499649048104.799949645996
*        60.
$ ... 8220 like lines cut
$ Loads for Load Case : Default
SPCADD   2       1       3
LOAD     2       1.      1.      1
$ Displacement Constraints of Load Set : Mesa
SPC1     1       3       173     THRU    224
SPC1     1       3       304     THRU    382
SPC1     1       3       386     388     390     392     394     396
         398     400     402     404     406     408     410     412
         414     416     418     420     422     424     426     428
         430     432     434     436     438
$ Displacement Constraints of Load Set : Empotre
SPC1     3       123456  344
$ Deform Body Contact LBC set: anillos
BCBODY1  1               3D      DEFORM  14
BSURF    14      101     102     103     104     105     106     107
         108     109     110     111     112     113     114     115
         116     117     118     119     120     121     122     123
         124     125     126     127     128     129     130     131
         132     133     134     135     136     137     138     139
         140     141     142     143     144     145     146     147
         148     149     150     151     152     153     154     155
         156     157     158     159     160     161     162     163
         164     165     166     167     168     169     170     171
         172     173     174     175     176     177     178     179
         180     181     182     183     184     185     186     187
         188     189     190     191     192     193     194     195
         196     197     198     199     200     201     202     203
         204     205     206     207     208     209     210     211
         212     213     214     215     216     217     218     219
         220     221     222     223     224     225     226     227
         228     229     230     231     232     233     234     235
         236     237     238     239     240     241     242     243
         244     245     246     247     248     249     250     251
         252     253     254     255     256     257     258     259
         260     261     262     263     264     265     266     267
$ ... 49 like lines cut
$ Deform Body Contact LBC set: helicoidalesD
BCBODY1  2               3D      DEFORM  11
BSURF    11      659     660     661     662     663     664     665
         666     667     668     669     670     671     672     673
         674     675     676     677     678     679     680     681
         682     683     684     685     686     687     688     689
         690     691     692     693     694     695     696     697
         698     699     700     701     702     703     704     705
         706     707     708     709     710     711     712     713
         714     715     716     717     718     719     720     721
         722     723     724     725     726     727     728     729
         730     731     732     733     734     735     736     737
         738     739     740     741     742     743     744     745
         746     747     748     749     750     751     752     753
         754     755     756     757     758     759     760     761
         762     763     764     765     766     767     768     769
         770     771     772     773     774     775     776     777
         778     779     780     781     782     783     784     785
         786     787     788     789     790     791     792     793
         794     795     796     797     798     799     800     801
         802     803     804     805     806     807     808     809
         810     811     812     813     814     815     816     817
         818     819     820     821     822     823     824     825
$ ... 44 like lines cut
$ Deform Body Contact LBC set: helicoidalesI
BCBODY1  3               3D      DEFORM  12
BSURF    12      1171    1172    1173    1174    1175    1176    1177
         1178    1179    1180    1181    1182    1183    1184    1185
         1186    1187    1188    1189    1190    1191    1192    1193
         1194    1195    1196    1197    1198    1199    1200    1201
         1202    1203    1204    1205    1206    1207    1208    1209
         1210    1211    1212    1213    1214    1215    1216    1217
         1218    1219    1220    1221    1222    1223    1224    1225
         1226    1227    1228    1229    1230    1231    1232    1233
         1234    1235    1236    1237    1238    1239    1240    1241
         1242    1243    1244    1245    1246    1247    1248    1249
         1250    1251    1252    1253    1254    1255    1256    1257
         1258    1259    1260    1261    1262    1263    1264    1265
         1266    1267    1268    1269    1270    1271    1272    1273
         1274    1275    1276    1277    1278    1279    1280    1281
         1282    1283    1284    1285    1286    1287    1288    1289
         1290    1291    1292    1293    1294    1295    1296    1297
         1298    1299    1300    1301    1302    1303    1304    1305
         1306    1307    1308    1309    1310    1311    1312    1313
         1314    1315    1316    1317    1318    1319    1320    1321
         1322    1323    1324    1325    1326    1327    1328    1329
         1330    1331    1332    1333    1334    1335    1336    1337
$ ... 44 like lines cut
$ Deform Body Contact LBC set: verticales
BCBODY1  4               3D      DEFORM  13
BSURF    13      1683    1684    1685    1686    1687    1688    1689
         1690    1691    1692    1693    1694    1695    1696    1697
         1698    1699    1700    1701    1702    1703    1704    1705
         1706    1707    1708    1709    1710    1711    1712    1713
         1714    1715    1716    1717    1718    1719    1720    1721
         1722    1723    1724    1725    1726    1727    1728    1729
         1730    1731    1732    1733    1734    1735    1736    1737
         1738    1739    1740    1741    1742    1743    1744    1745
         1746    1747    1748    1749    1750    1751    1752    1753
         1754    1755    1756    1757    1758    1759    1760    1761
         1762    1763    1764    1765    1766    1767    1768    1769
         1770    1771    1772    1773    1774    1775    1776    1777
         1778    1779    1780    1781    1782    1783    1784    1785
         1786    1787    1788    1789    1790    1791    1792    1793
         1794    1795    1796    1797    1798    1799    1800    1801
         1802    1803    1804    1805    1806    1807    1808    1809
         1810    1811    1812    1813    1814    1815    1816    1817
         1818    1819    1820    1821    1822    1823    1824    1825
         1826    1827    1828    1829    1830    1831    1832    1833
         1834    1835    1836    1837    1838    1839    1840    1841
         1842    1843    1844    1845    1846    1847    1848    1849
$ ... 96 like lines cut
$ Nodal Forces of Load Set : Fuerza
FORCE    1       574     0       15.     0.      0.      -1.
$ Referenced Coordinate Frames
ENDDATA 70991f27
