$ MSC.Nastran input file created on November  26, 2021 at 15:49:41 by
$ Patran 2021.1  (Student Edition)
$ Direct Text Input for Nastran System Cell Section
$ Direct Text Input for File Management Section
$ Direct Text Input for Executive Control
$ Linear Static Analysis, Database
SOL 101
CEND
$ Direct Text Input for Global Case Control Data
TITLE = MSC.Nastran job created on 26-Nov-21 at 15:17:09
ECHO = NONE
   BCONTACT = 0
SUBCASE 1
   SUBTITLE=Default
   NLSTEP = 1
   BCONTACT = 1
   SPC = 2
   LOAD = 2
   DISPLACEMENT(SORT1,REAL)=ALL
   SPCFORCES(SORT1,REAL)=ALL
   STRESS(SORT1,REAL,VONMISES,BILIN)=ALL
$ Direct Text Input for this Subcase
BEGIN BULK
$ Direct Text Input for Bulk Data
MDLPRM   HDF5    0
PARAM   PRTMAXIM YES
BCPARA   0       NLGLUE  0
NLSTEP   1
BCTABL1  0       8001    8002    8003    8004    8005    8006
BCONECT  8001    3001            1       1
BCONECT  8002    3002            2       1
BCONECT  8003    3003            3       1
BCONECT  8004    3004            2       2
BCONECT  8005    3005            3       2
BCONECT  8006    3006            3       3
BCONPRG  3001            COPTM   1061    COPTS   1061    ERROR   .1
         IGLUE   4       ISEARCH 2
BCONPRG  3002            COPTM   1061    COPTS   1061    ERROR   .1
         IGLUE   4       ISEARCH 2
BCONPRG  3003            COPTM   1061    COPTS   1061    ERROR   .1
         IGLUE   4       ISEARCH 2
BCONPRG  3004            ERROR   .1      IGLUE   1
BCONPRG  3005            COPTM   1061    COPTS   1061    ERROR   .1
         IGLUE   4       ISEARCH 2
BCONPRG  3006            ERROR   .1      IGLUE   1
BCTABL1  1       8001    8002    8003    8004    8005    8006
$ Elements and Element Properties for region : Shell_anillos
PSHELL   1       1       1.83    1              99999996
$ Pset: "Shell_anillos" will be imported as: "pshell.1"
CQUAD4   1       1       1       2       28      27
CQUAD4   2       1       2       3       29      28
CQUAD4   3       1       3       4       30      29
CQUAD4   4       1       4       5       31      30
CQUAD4   5       1       5       6       32      31
CQUAD4   6       1       6       7       33      32
CQUAD4   7       1       7       8       34      33
CQUAD4   8       1       8       9       35      34
CQUAD4   9       1       9       10      36      35
CQUAD4   10      1       10      11      37      36
CQUAD4   11      1       11      12      38      37
CQUAD4   12      1       12      13      39      38
CQUAD4   13      1       13      14      40      39
CQUAD4   14      1       14      15      41      40
CQUAD4   15      1       15      16      42      41
CQUAD4   16      1       16      17      43      42
CQUAD4   17      1       17      18      44      43
CQUAD4   18      1       18      19      45      44
CQUAD4   19      1       19      20      46      45
CQUAD4   20      1       20      21      47      46
$ ... 221 like lines cut
$ Elements and Element Properties for region : Shell_helicoidales
PSHELL   2       2       1.83    2              99999994
$ Pset: "Shell_helicoidales" will be imported as: "pshell.2"
CQUAD4   1042    2       1319    1320    1322    1321
CQUAD4   1043    2       1321    1322    1324    1323
CQUAD4   1044    2       1323    1324    1326    1325
CQUAD4   1045    2       1325    1326    1328    1327
CQUAD4   1046    2       1327    1328    1330    1329
CQUAD4   1047    2       1329    1330    1332    1331
CQUAD4   1048    2       1331    1332    1334    1333
CQUAD4   1049    2       1333    1334    1336    1335
CQUAD4   1050    2       1335    1336    1338    1337
CQUAD4   1051    2       1337    1338    1340    1339
CQUAD4   1052    2       1339    1340    1342    1341
CQUAD4   1053    2       1341    1342    1344    1343
CQUAD4   1054    2       1343    1344    1346    1345
CQUAD4   1055    2       1345    1346    1348    1347
CQUAD4   1056    2       1347    1348    1350    1349
CQUAD4   1057    2       1349    1350    1352    1351
CQUAD4   1058    2       1351    1352    1354    1353
CQUAD4   1059    2       1353    1354    1356    1355
CQUAD4   1060    2       1355    1356    1358    1357
CQUAD4   1061    2       1357    1358    1360    1359
$ ... 748 like lines cut
$ Elements and Element Properties for region : Shell_verticales
PSHELL   3       3       1.83    3              99999995
$ Pset: "Shell_verticales" will be imported as: "pshell.3"
CQUAD4   1810    3       2903    2904    2906    2905
CQUAD4   1811    3       2905    2906    2908    2907
CQUAD4   1812    3       2907    2908    2910    2909
CQUAD4   1813    3       2909    2910    2912    2911
CQUAD4   1814    3       2911    2912    2914    2913
CQUAD4   1815    3       2913    2914    2916    2915
CQUAD4   1816    3       2915    2916    2918    2917
CQUAD4   1817    3       2917    2918    2920    2919
CQUAD4   1818    3       2919    2920    2922    2921
CQUAD4   1819    3       2921    2922    2924    2923
CQUAD4   1820    3       2923    2924    2926    2925
CQUAD4   1821    3       2925    2926    2928    2927
CQUAD4   1822    3       2927    2928    2930    2929
CQUAD4   1823    3       2929    2930    2932    2931
CQUAD4   1824    3       2931    2932    2934    2933
CQUAD4   1825    3       2933    2934    2936    2935
CQUAD4   1826    3       2935    2936    2938    2937
CQUAD4   1827    3       2937    2938    2940    2939
CQUAD4   1828    3       2939    2940    2942    2941
CQUAD4   1829    3       2941    2942    2944    2943
$ ... 328 like lines cut
$ Referenced Material Records
$ Material Record : Laminado_anillos
$ Description of Material :
MAT2*    1               159.38547       2.840379
*        8.9996185                       4.6490006       1.5800003
         0.      0.              0.      0.
$ Material Record : Laminado_rigidizadores_vertical
$ Description of Material :
MAT2*    3               142.17371       3.4879348
*        9.79757                         4.6499996       1.5800003
         0.      0.              0.      0.
$ Material Record : Laminado_rigidizadores_helicoid
$ Description of Material :
MAT2*    2               142.17371       3.4879348
*        9.79757                         4.6499996       1.5800003
         0.      0.              0.      0.
$ Material Record : Laminado_anillos
$ Description of Material :
MAT2*    99999996        159.38547       2.840379
*        8.9996185                                       1.5800003
         0.      0.              0.      0.
$ Material Record : Laminado_rigidizadores_helicoid
$ Description of Material :
MAT2*    99999994        142.17371       3.4879348
*        9.79757                                         1.5800003
         0.      0.              0.      0.
$ Material Record : Laminado_rigidizadores_vertical
$ Description of Material :
MAT2*    99999995        142.17371       3.4879348
*        9.79757                                         1.5800003
         0.      0.              0.      0.
$ Multipoint Constraints of the Entire Model
$ ID conflict : the PATRAN MPC ID was 1
RBE2     2220    3753    123     1249    1250    1251    1252    1253
         1254    1255    1256    1257    1258    1259    1271    1272
         1273    1274    1275    1276    1277    1278    1279    1280
         1281    1282    1283    1284    1285    1286    1287    1306
         1308    1310    1312    1314    1316    1318    1319    1320
         1385    1386    1451    1452    1517    1518    1583    1584
         1649    1650    1715    1716    1781    1782    1847    1848
         1913    1914    1979    1980    2045    2046    2111    2112
         2177    2178    2243    2244    2309    2310    2375    2376
         2441    2442    2507    2508    2573    2574    2639    2640
         2705    2706    2771    2772    2837    2838    2961    2962
         3021    3022    3081    3082    3141    3142    3201    3202
         3261    3262    3321    3322    3381    3382    3441    3442
         3501    3502    3561    3562    3621    3622
$ Nodes of the Entire Model
GRID*    1                              -123.79306793213-5.27635129401-5
*        4.50634765625
GRID*    2                              -123.3833618164110.0631113052368
*        4.50634765625
GRID*    3                              -122.15705871582 20.059139251709
*        4.50634765625
GRID*    4                              -120.1222763061529.9224052429199
*        4.50634765625
GRID*    5                              -117.2923202514639.5881385803223
*        4.50634765625
GRID*    6                              -113.6859970092848.9918365478516
*        4.50634765625
GRID*    7                               -109.327430725158.0707817077637
*        4.50634765625
GRID*    8                              -104.2452926635766.7654037475586
*        4.50634765625
GRID*    9                               -98.4729080200275.0185623168945
*        4.50634765625
GRID*    10                             -92.04872131347782.7751770019531
*        4.50634765625
GRID*    11                             -85.015647888184 89.983528137207
*        4.50634765625
GRID*    12                             -77.41991424560596.5963363647461
*        4.50634765625
GRID*    13                             -69.311340332031102.570129394531
*        4.50634765625
GRID*    14                             -60.744003295898107.865005493164
*        4.50634765625
GRID*    15                             -51.775062561035112.445709228516
*        4.50634765625
GRID*    16                             -42.463466644287116.282196044922
*        4.50634765625
GRID*    17                             -32.870342254639119.349227905273
*        4.50634765625
GRID*    18                             -23.059631347656121.626281738281
*        4.50634765625
GRID*    19                             -13.096795082092 123.09822845459
*        4.50634765625
GRID*    20                             -3.0473239421844123.755470275879
*        4.50634765625
$ ... 5558 like lines cut
GRID     3753            0.      0.      290.
$ Loads for Load Case : Default
SPCADD   2       1
LOAD     2       1.      1.      1
$ Displacement Constraints of Load Set : Simple_apoyo_total
SPC1     1       123     27      THRU    52
SPC1     1       123     93      THRU    133
SPC1     1       123     136     139     142     145     148     151
         153     155     158     161     164     167     170     172
         1383    1384    1449    1450    1515    1516    1581    1582
         1647    1648    1713    1714    1779    1780    1845    1846
         1911    1912    1977    1978    2043    2044    2109    2110
         2175    2176    2241    2242    2307    2308    2373    2374
         2439    2440    2505    2506    2571    2572    2637    2638
         2703    2704    2769    2770    2835    2836    2901    2902
         2903    2904    2963    2964    3023    3024    3083    3084
         3143    3144    3203    3204    3263    3264    3323    3324
         3383    3384    3443    3444    3503    3504    3563    3564
$ Deform Body Contact LBC set: Anillos_glue
BCBODY1  1               3D      DEFORM  4
BSURF    4       1       2       3       4       5       6       7
         8       9       10      11      12      13      14      15
         16      17      18      19      20      21      22      23
         24      25      26      27      28      29      30      31
         32      33      34      35      36      37      38      39
         40      41      42      43      44      45      46      47
         48      49      50      51      52      53      54      55
         56      57      58      59      60      61      62      63
         64      65      66      67      68      69      70      71
         72      73      74      75      76      77      78      79
         80      81      82      83      84      85      86      87
         88      89      90      953     954     955     956     957
         958     959     960     961     962     963     964     965
         966     967     968     969     970     971     972     973
         974     975     976     977     978     979     980     981
         982     983     984     985     986     987     988     989
         990     991     992     993     994     995     996     997
         998     999     1000    1001    1002    1003    1004    1005
         1006    1007    1008    1009    1010    1011    1012    1013
         1014    1015    1016    1017    1018    1019    1020    1021
         1022    1023    1024    1025    1026    1027    1028    1029
$ ... 10 like lines cut
$ Deform Body Contact LBC set: Helicoidales_glue
BCBODY1  2               3D      DEFORM  5
BSURF    5       1042    1043    1044    1045    1046    1047    1048
         1049    1050    1051    1052    1053    1054    1055    1056
         1057    1058    1059    1060    1061    1062    1063    1064
         1065    1066    1067    1068    1069    1070    1071    1072
         1073    1074    1075    1076    1077    1078    1079    1080
         1081    1082    1083    1084    1085    1086    1087    1088
         1089    1090    1091    1092    1093    1094    1095    1096
         1097    1098    1099    1100    1101    1102    1103    1104
         1105    1106    1107    1108    1109    1110    1111    1112
         1113    1114    1115    1116    1117    1118    1119    1120
         1121    1122    1123    1124    1125    1126    1127    1128
         1129    1130    1131    1132    1133    1134    1135    1136
         1137    1138    1139    1140    1141    1142    1143    1144
         1145    1146    1147    1148    1149    1150    1151    1152
         1153    1154    1155    1156    1157    1158    1159    1160
         1161    1162    1163    1164    1165    1166    1167    1168
         1169    1170    1171    1172    1173    1174    1175    1176
         1177    1178    1179    1180    1181    1182    1183    1184
         1185    1186    1187    1188    1189    1190    1191    1192
         1193    1194    1195    1196    1197    1198    1199    1200
         1201    1202    1203    1204    1205    1206    1207    1208
$ ... 76 like lines cut
$ Deform Body Contact LBC set: Verticales_glue
BCBODY1  3               3D      DEFORM  6
BSURF    6       1810    1811    1812    1813    1814    1815    1816
         1817    1818    1819    1820    1821    1822    1823    1824
         1825    1826    1827    1828    1829    1830    1831    1832
         1833    1834    1835    1836    1837    1838    1839    1840
         1841    1842    1843    1844    1845    1846    1847    1848
         1849    1850    1851    1852    1853    1854    1855    1856
         1857    1858    1859    1860    1861    1862    1863    1864
         1865    1866    1867    1868    1869    1870    1871    1872
         1873    1874    1875    1876    1877    1878    1879    1880
         1881    1882    1883    1884    1885    1886    1887    1888
         1889    1890    1891    1892    1893    1894    1895    1896
         1897    1898    1899    1900    1901    1902    1903    1904
         1905    1906    1907    1908    1909    1910    1911    1912
         1913    1914    1915    1916    1917    1918    1919    1920
         1921    1922    1923    1924    1925    1926    1927    1928
         1929    1930    1931    1932    1933    1934    1935    1936
         1937    1938    1939    1940    1941    1942    1943    1944
         1945    1946    1947    1948    1949    1950    1951    1952
         1953    1954    1955    1956    1957    1958    1959    1960
         1961    1962    1963    1964    1965    1966    1967    1968
         1969    1970    1971    1972    1973    1974    1975    1976
$ ... 23 like lines cut
BCHANGE  1       NODE    3               1       1       173     1
         1       1127    1320    1       1       1385    1386    1
         1       1451    1452    1       1       1517    1518    1
         1       1583    1584    1       1       1649    1650    1
         1       1715    1716    1       1       1781    1782    1
         1       1847    1848    1       1       1913    1914    1
         1       1979    1980    1       1       2045    2046    1
         1       2111    2112    1       1       2177    2178    1
         1       2243    2244    1       1       2309    2310    1
         1       2375    2376    1       1       2441    2442    1
         1       2507    2508    1
         2       1319    2902    1
         3       2903    3622    1
$ Nodal Forces of Load Set : Fuerza
FORCE    1       3753    0       15.     0.      0.      -1.
$ Referenced Coordinate Frames
ENDDATA 7b451805
